
---------- Begin Simulation Statistics ----------
sim_seconds                              12099.868535                       # Number of seconds simulated
sim_ticks                                12099868535135000                       # Number of ticks simulated
final_tick                               18846991589916000                       # Number of ticks from beginning of simulation (restored from checkpoints and never reset)
sim_freq                                 1000000000000                       # Frequency of simulated ticks
host_inst_rate                                2427222                       # Simulator instruction rate (inst/s)
host_op_rate                                  2685142                       # Simulator op (including micro ops) rate (op/s)
host_tick_rate                           3409623731918                       # Simulator tick rate (ticks/s)
host_mem_usage                                5043852                       # Number of bytes of host memory used
host_seconds                                  3548.74                       # Real time elapsed on the host
sim_insts                                  8613578450                       # Number of instructions simulated
sim_ops                                    9528869374                       # Number of ops (including micro ops) simulated
system.voltage_domain.voltage                       1                       # Voltage in Volts
system.clk_domain.clock                           625                       # Clock period in ticks
system.bootmem.pwrStateResidencyTicks::UNDEFINED 18846991589916000                       # Cumulative time (in ticks) in various power states
system.mem_ctrls.pwrStateResidencyTicks::UNDEFINED 18846991589916000                       # Cumulative time (in ticks) in various power states
system.mem_ctrls.bytes_read::cpu00.dtb.walker       213376                       # Number of bytes read from this memory
system.mem_ctrls.bytes_read::cpu00.itb.walker       132928                       # Number of bytes read from this memory
system.mem_ctrls.bytes_read::cpu00.inst       9594880                       # Number of bytes read from this memory
system.mem_ctrls.bytes_read::cpu00.data      81748224                       # Number of bytes read from this memory
system.mem_ctrls.bytes_read::cpu01.dtb.walker        28032                       # Number of bytes read from this memory
system.mem_ctrls.bytes_read::cpu01.itb.walker        22272                       # Number of bytes read from this memory
system.mem_ctrls.bytes_read::cpu01.inst       1322304                       # Number of bytes read from this memory
system.mem_ctrls.bytes_read::cpu01.data       3447680                       # Number of bytes read from this memory
system.mem_ctrls.bytes_read::cpu02.dtb.walker        26496                       # Number of bytes read from this memory
system.mem_ctrls.bytes_read::cpu02.itb.walker        13312                       # Number of bytes read from this memory
system.mem_ctrls.bytes_read::cpu02.inst       2200256                       # Number of bytes read from this memory
system.mem_ctrls.bytes_read::cpu02.data       3272000                       # Number of bytes read from this memory
system.mem_ctrls.bytes_read::cpu03.dtb.walker        95680                       # Number of bytes read from this memory
system.mem_ctrls.bytes_read::cpu03.itb.walker        30592                       # Number of bytes read from this memory
system.mem_ctrls.bytes_read::cpu03.inst       2155584                       # Number of bytes read from this memory
system.mem_ctrls.bytes_read::cpu03.data       7847680                       # Number of bytes read from this memory
system.mem_ctrls.bytes_read::cpu04.dtb.walker       125824                       # Number of bytes read from this memory
system.mem_ctrls.bytes_read::cpu04.itb.walker        50496                       # Number of bytes read from this memory
system.mem_ctrls.bytes_read::cpu04.inst       5133824                       # Number of bytes read from this memory
system.mem_ctrls.bytes_read::cpu04.data       9019328                       # Number of bytes read from this memory
system.mem_ctrls.bytes_read::cpu05.dtb.walker        16384                       # Number of bytes read from this memory
system.mem_ctrls.bytes_read::cpu05.itb.walker        11904                       # Number of bytes read from this memory
system.mem_ctrls.bytes_read::cpu05.inst        952896                       # Number of bytes read from this memory
system.mem_ctrls.bytes_read::cpu05.data       1371392                       # Number of bytes read from this memory
system.mem_ctrls.bytes_read::cpu06.dtb.walker        30976                       # Number of bytes read from this memory
system.mem_ctrls.bytes_read::cpu06.itb.walker        29696                       # Number of bytes read from this memory
system.mem_ctrls.bytes_read::cpu06.inst       1858240                       # Number of bytes read from this memory
system.mem_ctrls.bytes_read::cpu06.data       5152320                       # Number of bytes read from this memory
system.mem_ctrls.bytes_read::cpu07.dtb.walker        30528                       # Number of bytes read from this memory
system.mem_ctrls.bytes_read::cpu07.itb.walker        28864                       # Number of bytes read from this memory
system.mem_ctrls.bytes_read::cpu07.inst       1885824                       # Number of bytes read from this memory
system.mem_ctrls.bytes_read::cpu07.data       3699136                       # Number of bytes read from this memory
system.mem_ctrls.bytes_read::cpu08.dtb.walker      3577344                       # Number of bytes read from this memory
system.mem_ctrls.bytes_read::cpu08.itb.walker        93440                       # Number of bytes read from this memory
system.mem_ctrls.bytes_read::cpu08.inst       4424768                       # Number of bytes read from this memory
system.mem_ctrls.bytes_read::cpu08.data     171859392                       # Number of bytes read from this memory
system.mem_ctrls.bytes_read::cpu09.dtb.walker        24640                       # Number of bytes read from this memory
system.mem_ctrls.bytes_read::cpu09.itb.walker         8256                       # Number of bytes read from this memory
system.mem_ctrls.bytes_read::cpu09.inst       1198272                       # Number of bytes read from this memory
system.mem_ctrls.bytes_read::cpu09.data       1925952                       # Number of bytes read from this memory
system.mem_ctrls.bytes_read::cpu10.dtb.walker        19776                       # Number of bytes read from this memory
system.mem_ctrls.bytes_read::cpu10.itb.walker        13824                       # Number of bytes read from this memory
system.mem_ctrls.bytes_read::cpu10.inst       1010944                       # Number of bytes read from this memory
system.mem_ctrls.bytes_read::cpu10.data       1767232                       # Number of bytes read from this memory
system.mem_ctrls.bytes_read::cpu11.dtb.walker         8512                       # Number of bytes read from this memory
system.mem_ctrls.bytes_read::cpu11.itb.walker         6080                       # Number of bytes read from this memory
system.mem_ctrls.bytes_read::cpu11.inst        667456                       # Number of bytes read from this memory
system.mem_ctrls.bytes_read::cpu11.data        890944                       # Number of bytes read from this memory
system.mem_ctrls.bytes_read::cpu12.dtb.walker        26304                       # Number of bytes read from this memory
system.mem_ctrls.bytes_read::cpu12.itb.walker        16512                       # Number of bytes read from this memory
system.mem_ctrls.bytes_read::cpu12.inst       1878720                       # Number of bytes read from this memory
system.mem_ctrls.bytes_read::cpu12.data       4517760                       # Number of bytes read from this memory
system.mem_ctrls.bytes_read::cpu13.dtb.walker        34880                       # Number of bytes read from this memory
system.mem_ctrls.bytes_read::cpu13.itb.walker        22208                       # Number of bytes read from this memory
system.mem_ctrls.bytes_read::cpu13.inst       1432320                       # Number of bytes read from this memory
system.mem_ctrls.bytes_read::cpu13.data       1667264                       # Number of bytes read from this memory
system.mem_ctrls.bytes_read::cpu14.dtb.walker      2796032                       # Number of bytes read from this memory
system.mem_ctrls.bytes_read::cpu14.itb.walker      2025920                       # Number of bytes read from this memory
system.mem_ctrls.bytes_read::cpu14.inst      37470336                       # Number of bytes read from this memory
system.mem_ctrls.bytes_read::cpu14.data      30338816                       # Number of bytes read from this memory
system.mem_ctrls.bytes_read::cpu15.dtb.walker       115200                       # Number of bytes read from this memory
system.mem_ctrls.bytes_read::cpu15.itb.walker        43840                       # Number of bytes read from this memory
system.mem_ctrls.bytes_read::cpu15.inst       3463872                       # Number of bytes read from this memory
system.mem_ctrls.bytes_read::cpu15.data       3347584                       # Number of bytes read from this memory
system.mem_ctrls.bytes_read::total          418243328                       # Number of bytes read from this memory
system.mem_ctrls.bytes_inst_read::cpu00.inst      9594880                       # Number of instructions bytes read from this memory
system.mem_ctrls.bytes_inst_read::cpu01.inst      1322304                       # Number of instructions bytes read from this memory
system.mem_ctrls.bytes_inst_read::cpu02.inst      2200256                       # Number of instructions bytes read from this memory
system.mem_ctrls.bytes_inst_read::cpu03.inst      2155584                       # Number of instructions bytes read from this memory
system.mem_ctrls.bytes_inst_read::cpu04.inst      5133824                       # Number of instructions bytes read from this memory
system.mem_ctrls.bytes_inst_read::cpu05.inst       952896                       # Number of instructions bytes read from this memory
system.mem_ctrls.bytes_inst_read::cpu06.inst      1858240                       # Number of instructions bytes read from this memory
system.mem_ctrls.bytes_inst_read::cpu07.inst      1885824                       # Number of instructions bytes read from this memory
system.mem_ctrls.bytes_inst_read::cpu08.inst      4424768                       # Number of instructions bytes read from this memory
system.mem_ctrls.bytes_inst_read::cpu09.inst      1198272                       # Number of instructions bytes read from this memory
system.mem_ctrls.bytes_inst_read::cpu10.inst      1010944                       # Number of instructions bytes read from this memory
system.mem_ctrls.bytes_inst_read::cpu11.inst       667456                       # Number of instructions bytes read from this memory
system.mem_ctrls.bytes_inst_read::cpu12.inst      1878720                       # Number of instructions bytes read from this memory
system.mem_ctrls.bytes_inst_read::cpu13.inst      1432320                       # Number of instructions bytes read from this memory
system.mem_ctrls.bytes_inst_read::cpu14.inst     37470336                       # Number of instructions bytes read from this memory
system.mem_ctrls.bytes_inst_read::cpu15.inst      3463872                       # Number of instructions bytes read from this memory
system.mem_ctrls.bytes_inst_read::total      76650496                       # Number of instructions bytes read from this memory
system.mem_ctrls.bytes_written::writebacks    183971392                       # Number of bytes written to this memory
system.mem_ctrls.bytes_written::total       183971392                       # Number of bytes written to this memory
system.mem_ctrls.num_reads::cpu00.dtb.walker         3334                       # Number of read requests responded to by this memory
system.mem_ctrls.num_reads::cpu00.itb.walker         2077                       # Number of read requests responded to by this memory
system.mem_ctrls.num_reads::cpu00.inst         149920                       # Number of read requests responded to by this memory
system.mem_ctrls.num_reads::cpu00.data        1277316                       # Number of read requests responded to by this memory
system.mem_ctrls.num_reads::cpu01.dtb.walker          438                       # Number of read requests responded to by this memory
system.mem_ctrls.num_reads::cpu01.itb.walker          348                       # Number of read requests responded to by this memory
system.mem_ctrls.num_reads::cpu01.inst          20661                       # Number of read requests responded to by this memory
system.mem_ctrls.num_reads::cpu01.data          53870                       # Number of read requests responded to by this memory
system.mem_ctrls.num_reads::cpu02.dtb.walker          414                       # Number of read requests responded to by this memory
system.mem_ctrls.num_reads::cpu02.itb.walker          208                       # Number of read requests responded to by this memory
system.mem_ctrls.num_reads::cpu02.inst          34379                       # Number of read requests responded to by this memory
system.mem_ctrls.num_reads::cpu02.data          51125                       # Number of read requests responded to by this memory
system.mem_ctrls.num_reads::cpu03.dtb.walker         1495                       # Number of read requests responded to by this memory
system.mem_ctrls.num_reads::cpu03.itb.walker          478                       # Number of read requests responded to by this memory
system.mem_ctrls.num_reads::cpu03.inst          33681                       # Number of read requests responded to by this memory
system.mem_ctrls.num_reads::cpu03.data         122620                       # Number of read requests responded to by this memory
system.mem_ctrls.num_reads::cpu04.dtb.walker         1966                       # Number of read requests responded to by this memory
system.mem_ctrls.num_reads::cpu04.itb.walker          789                       # Number of read requests responded to by this memory
system.mem_ctrls.num_reads::cpu04.inst          80216                       # Number of read requests responded to by this memory
system.mem_ctrls.num_reads::cpu04.data         140927                       # Number of read requests responded to by this memory
system.mem_ctrls.num_reads::cpu05.dtb.walker          256                       # Number of read requests responded to by this memory
system.mem_ctrls.num_reads::cpu05.itb.walker          186                       # Number of read requests responded to by this memory
system.mem_ctrls.num_reads::cpu05.inst          14889                       # Number of read requests responded to by this memory
system.mem_ctrls.num_reads::cpu05.data          21428                       # Number of read requests responded to by this memory
system.mem_ctrls.num_reads::cpu06.dtb.walker          484                       # Number of read requests responded to by this memory
system.mem_ctrls.num_reads::cpu06.itb.walker          464                       # Number of read requests responded to by this memory
system.mem_ctrls.num_reads::cpu06.inst          29035                       # Number of read requests responded to by this memory
system.mem_ctrls.num_reads::cpu06.data          80505                       # Number of read requests responded to by this memory
system.mem_ctrls.num_reads::cpu07.dtb.walker          477                       # Number of read requests responded to by this memory
system.mem_ctrls.num_reads::cpu07.itb.walker          451                       # Number of read requests responded to by this memory
system.mem_ctrls.num_reads::cpu07.inst          29466                       # Number of read requests responded to by this memory
system.mem_ctrls.num_reads::cpu07.data          57799                       # Number of read requests responded to by this memory
system.mem_ctrls.num_reads::cpu08.dtb.walker        55896                       # Number of read requests responded to by this memory
system.mem_ctrls.num_reads::cpu08.itb.walker         1460                       # Number of read requests responded to by this memory
system.mem_ctrls.num_reads::cpu08.inst          69137                       # Number of read requests responded to by this memory
system.mem_ctrls.num_reads::cpu08.data        2685303                       # Number of read requests responded to by this memory
system.mem_ctrls.num_reads::cpu09.dtb.walker          385                       # Number of read requests responded to by this memory
system.mem_ctrls.num_reads::cpu09.itb.walker          129                       # Number of read requests responded to by this memory
system.mem_ctrls.num_reads::cpu09.inst          18723                       # Number of read requests responded to by this memory
system.mem_ctrls.num_reads::cpu09.data          30093                       # Number of read requests responded to by this memory
system.mem_ctrls.num_reads::cpu10.dtb.walker          309                       # Number of read requests responded to by this memory
system.mem_ctrls.num_reads::cpu10.itb.walker          216                       # Number of read requests responded to by this memory
system.mem_ctrls.num_reads::cpu10.inst          15796                       # Number of read requests responded to by this memory
system.mem_ctrls.num_reads::cpu10.data          27613                       # Number of read requests responded to by this memory
system.mem_ctrls.num_reads::cpu11.dtb.walker          133                       # Number of read requests responded to by this memory
system.mem_ctrls.num_reads::cpu11.itb.walker           95                       # Number of read requests responded to by this memory
system.mem_ctrls.num_reads::cpu11.inst          10429                       # Number of read requests responded to by this memory
system.mem_ctrls.num_reads::cpu11.data          13921                       # Number of read requests responded to by this memory
system.mem_ctrls.num_reads::cpu12.dtb.walker          411                       # Number of read requests responded to by this memory
system.mem_ctrls.num_reads::cpu12.itb.walker          258                       # Number of read requests responded to by this memory
system.mem_ctrls.num_reads::cpu12.inst          29355                       # Number of read requests responded to by this memory
system.mem_ctrls.num_reads::cpu12.data          70590                       # Number of read requests responded to by this memory
system.mem_ctrls.num_reads::cpu13.dtb.walker          545                       # Number of read requests responded to by this memory
system.mem_ctrls.num_reads::cpu13.itb.walker          347                       # Number of read requests responded to by this memory
system.mem_ctrls.num_reads::cpu13.inst          22380                       # Number of read requests responded to by this memory
system.mem_ctrls.num_reads::cpu13.data          26051                       # Number of read requests responded to by this memory
system.mem_ctrls.num_reads::cpu14.dtb.walker        43688                       # Number of read requests responded to by this memory
system.mem_ctrls.num_reads::cpu14.itb.walker        31655                       # Number of read requests responded to by this memory
system.mem_ctrls.num_reads::cpu14.inst         585474                       # Number of read requests responded to by this memory
system.mem_ctrls.num_reads::cpu14.data         474044                       # Number of read requests responded to by this memory
system.mem_ctrls.num_reads::cpu15.dtb.walker         1800                       # Number of read requests responded to by this memory
system.mem_ctrls.num_reads::cpu15.itb.walker          685                       # Number of read requests responded to by this memory
system.mem_ctrls.num_reads::cpu15.inst          54123                       # Number of read requests responded to by this memory
system.mem_ctrls.num_reads::cpu15.data          52306                       # Number of read requests responded to by this memory
system.mem_ctrls.num_reads::total             6535052                       # Number of read requests responded to by this memory
system.mem_ctrls.num_writes::writebacks       2874553                       # Number of write requests responded to by this memory
system.mem_ctrls.num_writes::total            2874553                       # Number of write requests responded to by this memory
system.mem_ctrls.bw_read::cpu00.dtb.walker           18                       # Total read bandwidth from this memory (bytes/s)
system.mem_ctrls.bw_read::cpu00.itb.walker           11                       # Total read bandwidth from this memory (bytes/s)
system.mem_ctrls.bw_read::cpu00.inst              793                       # Total read bandwidth from this memory (bytes/s)
system.mem_ctrls.bw_read::cpu00.data             6756                       # Total read bandwidth from this memory (bytes/s)
system.mem_ctrls.bw_read::cpu01.dtb.walker            2                       # Total read bandwidth from this memory (bytes/s)
system.mem_ctrls.bw_read::cpu01.itb.walker            2                       # Total read bandwidth from this memory (bytes/s)
system.mem_ctrls.bw_read::cpu01.inst              109                       # Total read bandwidth from this memory (bytes/s)
system.mem_ctrls.bw_read::cpu01.data              285                       # Total read bandwidth from this memory (bytes/s)
system.mem_ctrls.bw_read::cpu02.dtb.walker            2                       # Total read bandwidth from this memory (bytes/s)
system.mem_ctrls.bw_read::cpu02.itb.walker            1                       # Total read bandwidth from this memory (bytes/s)
system.mem_ctrls.bw_read::cpu02.inst              182                       # Total read bandwidth from this memory (bytes/s)
system.mem_ctrls.bw_read::cpu02.data              270                       # Total read bandwidth from this memory (bytes/s)
system.mem_ctrls.bw_read::cpu03.dtb.walker            8                       # Total read bandwidth from this memory (bytes/s)
system.mem_ctrls.bw_read::cpu03.itb.walker            3                       # Total read bandwidth from this memory (bytes/s)
system.mem_ctrls.bw_read::cpu03.inst              178                       # Total read bandwidth from this memory (bytes/s)
system.mem_ctrls.bw_read::cpu03.data              649                       # Total read bandwidth from this memory (bytes/s)
system.mem_ctrls.bw_read::cpu04.dtb.walker           10                       # Total read bandwidth from this memory (bytes/s)
system.mem_ctrls.bw_read::cpu04.itb.walker            4                       # Total read bandwidth from this memory (bytes/s)
system.mem_ctrls.bw_read::cpu04.inst              424                       # Total read bandwidth from this memory (bytes/s)
system.mem_ctrls.bw_read::cpu04.data              745                       # Total read bandwidth from this memory (bytes/s)
system.mem_ctrls.bw_read::cpu05.dtb.walker            1                       # Total read bandwidth from this memory (bytes/s)
system.mem_ctrls.bw_read::cpu05.itb.walker            1                       # Total read bandwidth from this memory (bytes/s)
system.mem_ctrls.bw_read::cpu05.inst               79                       # Total read bandwidth from this memory (bytes/s)
system.mem_ctrls.bw_read::cpu05.data              113                       # Total read bandwidth from this memory (bytes/s)
system.mem_ctrls.bw_read::cpu06.dtb.walker            3                       # Total read bandwidth from this memory (bytes/s)
system.mem_ctrls.bw_read::cpu06.itb.walker            2                       # Total read bandwidth from this memory (bytes/s)
system.mem_ctrls.bw_read::cpu06.inst              154                       # Total read bandwidth from this memory (bytes/s)
system.mem_ctrls.bw_read::cpu06.data              426                       # Total read bandwidth from this memory (bytes/s)
system.mem_ctrls.bw_read::cpu07.dtb.walker            3                       # Total read bandwidth from this memory (bytes/s)
system.mem_ctrls.bw_read::cpu07.itb.walker            2                       # Total read bandwidth from this memory (bytes/s)
system.mem_ctrls.bw_read::cpu07.inst              156                       # Total read bandwidth from this memory (bytes/s)
system.mem_ctrls.bw_read::cpu07.data              306                       # Total read bandwidth from this memory (bytes/s)
system.mem_ctrls.bw_read::cpu08.dtb.walker          296                       # Total read bandwidth from this memory (bytes/s)
system.mem_ctrls.bw_read::cpu08.itb.walker            8                       # Total read bandwidth from this memory (bytes/s)
system.mem_ctrls.bw_read::cpu08.inst              366                       # Total read bandwidth from this memory (bytes/s)
system.mem_ctrls.bw_read::cpu08.data            14203                       # Total read bandwidth from this memory (bytes/s)
system.mem_ctrls.bw_read::cpu09.dtb.walker            2                       # Total read bandwidth from this memory (bytes/s)
system.mem_ctrls.bw_read::cpu09.itb.walker            1                       # Total read bandwidth from this memory (bytes/s)
system.mem_ctrls.bw_read::cpu09.inst               99                       # Total read bandwidth from this memory (bytes/s)
system.mem_ctrls.bw_read::cpu09.data              159                       # Total read bandwidth from this memory (bytes/s)
system.mem_ctrls.bw_read::cpu10.dtb.walker            2                       # Total read bandwidth from this memory (bytes/s)
system.mem_ctrls.bw_read::cpu10.itb.walker            1                       # Total read bandwidth from this memory (bytes/s)
system.mem_ctrls.bw_read::cpu10.inst               84                       # Total read bandwidth from this memory (bytes/s)
system.mem_ctrls.bw_read::cpu10.data              146                       # Total read bandwidth from this memory (bytes/s)
system.mem_ctrls.bw_read::cpu11.dtb.walker            1                       # Total read bandwidth from this memory (bytes/s)
system.mem_ctrls.bw_read::cpu11.itb.walker            1                       # Total read bandwidth from this memory (bytes/s)
system.mem_ctrls.bw_read::cpu11.inst               55                       # Total read bandwidth from this memory (bytes/s)
system.mem_ctrls.bw_read::cpu11.data               74                       # Total read bandwidth from this memory (bytes/s)
system.mem_ctrls.bw_read::cpu12.dtb.walker            2                       # Total read bandwidth from this memory (bytes/s)
system.mem_ctrls.bw_read::cpu12.itb.walker            1                       # Total read bandwidth from this memory (bytes/s)
system.mem_ctrls.bw_read::cpu12.inst              155                       # Total read bandwidth from this memory (bytes/s)
system.mem_ctrls.bw_read::cpu12.data              373                       # Total read bandwidth from this memory (bytes/s)
system.mem_ctrls.bw_read::cpu13.dtb.walker            3                       # Total read bandwidth from this memory (bytes/s)
system.mem_ctrls.bw_read::cpu13.itb.walker            2                       # Total read bandwidth from this memory (bytes/s)
system.mem_ctrls.bw_read::cpu13.inst              118                       # Total read bandwidth from this memory (bytes/s)
system.mem_ctrls.bw_read::cpu13.data              138                       # Total read bandwidth from this memory (bytes/s)
system.mem_ctrls.bw_read::cpu14.dtb.walker          231                       # Total read bandwidth from this memory (bytes/s)
system.mem_ctrls.bw_read::cpu14.itb.walker          167                       # Total read bandwidth from this memory (bytes/s)
system.mem_ctrls.bw_read::cpu14.inst             3097                       # Total read bandwidth from this memory (bytes/s)
system.mem_ctrls.bw_read::cpu14.data             2507                       # Total read bandwidth from this memory (bytes/s)
system.mem_ctrls.bw_read::cpu15.dtb.walker           10                       # Total read bandwidth from this memory (bytes/s)
system.mem_ctrls.bw_read::cpu15.itb.walker            4                       # Total read bandwidth from this memory (bytes/s)
system.mem_ctrls.bw_read::cpu15.inst              286                       # Total read bandwidth from this memory (bytes/s)
system.mem_ctrls.bw_read::cpu15.data              277                       # Total read bandwidth from this memory (bytes/s)
system.mem_ctrls.bw_read::total                 34566                       # Total read bandwidth from this memory (bytes/s)
system.mem_ctrls.bw_inst_read::cpu00.inst          793                       # Instruction read bandwidth from this memory (bytes/s)
system.mem_ctrls.bw_inst_read::cpu01.inst          109                       # Instruction read bandwidth from this memory (bytes/s)
system.mem_ctrls.bw_inst_read::cpu02.inst          182                       # Instruction read bandwidth from this memory (bytes/s)
system.mem_ctrls.bw_inst_read::cpu03.inst          178                       # Instruction read bandwidth from this memory (bytes/s)
system.mem_ctrls.bw_inst_read::cpu04.inst          424                       # Instruction read bandwidth from this memory (bytes/s)
system.mem_ctrls.bw_inst_read::cpu05.inst           79                       # Instruction read bandwidth from this memory (bytes/s)
system.mem_ctrls.bw_inst_read::cpu06.inst          154                       # Instruction read bandwidth from this memory (bytes/s)
system.mem_ctrls.bw_inst_read::cpu07.inst          156                       # Instruction read bandwidth from this memory (bytes/s)
system.mem_ctrls.bw_inst_read::cpu08.inst          366                       # Instruction read bandwidth from this memory (bytes/s)
system.mem_ctrls.bw_inst_read::cpu09.inst           99                       # Instruction read bandwidth from this memory (bytes/s)
system.mem_ctrls.bw_inst_read::cpu10.inst           84                       # Instruction read bandwidth from this memory (bytes/s)
system.mem_ctrls.bw_inst_read::cpu11.inst           55                       # Instruction read bandwidth from this memory (bytes/s)
system.mem_ctrls.bw_inst_read::cpu12.inst          155                       # Instruction read bandwidth from this memory (bytes/s)
system.mem_ctrls.bw_inst_read::cpu13.inst          118                       # Instruction read bandwidth from this memory (bytes/s)
system.mem_ctrls.bw_inst_read::cpu14.inst         3097                       # Instruction read bandwidth from this memory (bytes/s)
system.mem_ctrls.bw_inst_read::cpu15.inst          286                       # Instruction read bandwidth from this memory (bytes/s)
system.mem_ctrls.bw_inst_read::total             6335                       # Instruction read bandwidth from this memory (bytes/s)
system.mem_ctrls.bw_write::writebacks           15204                       # Write bandwidth from this memory (bytes/s)
system.mem_ctrls.bw_write::total                15204                       # Write bandwidth from this memory (bytes/s)
system.mem_ctrls.bw_total::writebacks           15204                       # Total bandwidth to/from this memory (bytes/s)
system.mem_ctrls.bw_total::cpu00.dtb.walker           18                       # Total bandwidth to/from this memory (bytes/s)
system.mem_ctrls.bw_total::cpu00.itb.walker           11                       # Total bandwidth to/from this memory (bytes/s)
system.mem_ctrls.bw_total::cpu00.inst             793                       # Total bandwidth to/from this memory (bytes/s)
system.mem_ctrls.bw_total::cpu00.data            6756                       # Total bandwidth to/from this memory (bytes/s)
system.mem_ctrls.bw_total::cpu01.dtb.walker            2                       # Total bandwidth to/from this memory (bytes/s)
system.mem_ctrls.bw_total::cpu01.itb.walker            2                       # Total bandwidth to/from this memory (bytes/s)
system.mem_ctrls.bw_total::cpu01.inst             109                       # Total bandwidth to/from this memory (bytes/s)
system.mem_ctrls.bw_total::cpu01.data             285                       # Total bandwidth to/from this memory (bytes/s)
system.mem_ctrls.bw_total::cpu02.dtb.walker            2                       # Total bandwidth to/from this memory (bytes/s)
system.mem_ctrls.bw_total::cpu02.itb.walker            1                       # Total bandwidth to/from this memory (bytes/s)
system.mem_ctrls.bw_total::cpu02.inst             182                       # Total bandwidth to/from this memory (bytes/s)
system.mem_ctrls.bw_total::cpu02.data             270                       # Total bandwidth to/from this memory (bytes/s)
system.mem_ctrls.bw_total::cpu03.dtb.walker            8                       # Total bandwidth to/from this memory (bytes/s)
system.mem_ctrls.bw_total::cpu03.itb.walker            3                       # Total bandwidth to/from this memory (bytes/s)
system.mem_ctrls.bw_total::cpu03.inst             178                       # Total bandwidth to/from this memory (bytes/s)
system.mem_ctrls.bw_total::cpu03.data             649                       # Total bandwidth to/from this memory (bytes/s)
system.mem_ctrls.bw_total::cpu04.dtb.walker           10                       # Total bandwidth to/from this memory (bytes/s)
system.mem_ctrls.bw_total::cpu04.itb.walker            4                       # Total bandwidth to/from this memory (bytes/s)
system.mem_ctrls.bw_total::cpu04.inst             424                       # Total bandwidth to/from this memory (bytes/s)
system.mem_ctrls.bw_total::cpu04.data             745                       # Total bandwidth to/from this memory (bytes/s)
system.mem_ctrls.bw_total::cpu05.dtb.walker            1                       # Total bandwidth to/from this memory (bytes/s)
system.mem_ctrls.bw_total::cpu05.itb.walker            1                       # Total bandwidth to/from this memory (bytes/s)
system.mem_ctrls.bw_total::cpu05.inst              79                       # Total bandwidth to/from this memory (bytes/s)
system.mem_ctrls.bw_total::cpu05.data             113                       # Total bandwidth to/from this memory (bytes/s)
system.mem_ctrls.bw_total::cpu06.dtb.walker            3                       # Total bandwidth to/from this memory (bytes/s)
system.mem_ctrls.bw_total::cpu06.itb.walker            2                       # Total bandwidth to/from this memory (bytes/s)
system.mem_ctrls.bw_total::cpu06.inst             154                       # Total bandwidth to/from this memory (bytes/s)
system.mem_ctrls.bw_total::cpu06.data             426                       # Total bandwidth to/from this memory (bytes/s)
system.mem_ctrls.bw_total::cpu07.dtb.walker            3                       # Total bandwidth to/from this memory (bytes/s)
system.mem_ctrls.bw_total::cpu07.itb.walker            2                       # Total bandwidth to/from this memory (bytes/s)
system.mem_ctrls.bw_total::cpu07.inst             156                       # Total bandwidth to/from this memory (bytes/s)
system.mem_ctrls.bw_total::cpu07.data             306                       # Total bandwidth to/from this memory (bytes/s)
system.mem_ctrls.bw_total::cpu08.dtb.walker          296                       # Total bandwidth to/from this memory (bytes/s)
system.mem_ctrls.bw_total::cpu08.itb.walker            8                       # Total bandwidth to/from this memory (bytes/s)
system.mem_ctrls.bw_total::cpu08.inst             366                       # Total bandwidth to/from this memory (bytes/s)
system.mem_ctrls.bw_total::cpu08.data           14203                       # Total bandwidth to/from this memory (bytes/s)
system.mem_ctrls.bw_total::cpu09.dtb.walker            2                       # Total bandwidth to/from this memory (bytes/s)
system.mem_ctrls.bw_total::cpu09.itb.walker            1                       # Total bandwidth to/from this memory (bytes/s)
system.mem_ctrls.bw_total::cpu09.inst              99                       # Total bandwidth to/from this memory (bytes/s)
system.mem_ctrls.bw_total::cpu09.data             159                       # Total bandwidth to/from this memory (bytes/s)
system.mem_ctrls.bw_total::cpu10.dtb.walker            2                       # Total bandwidth to/from this memory (bytes/s)
system.mem_ctrls.bw_total::cpu10.itb.walker            1                       # Total bandwidth to/from this memory (bytes/s)
system.mem_ctrls.bw_total::cpu10.inst              84                       # Total bandwidth to/from this memory (bytes/s)
system.mem_ctrls.bw_total::cpu10.data             146                       # Total bandwidth to/from this memory (bytes/s)
system.mem_ctrls.bw_total::cpu11.dtb.walker            1                       # Total bandwidth to/from this memory (bytes/s)
system.mem_ctrls.bw_total::cpu11.itb.walker            1                       # Total bandwidth to/from this memory (bytes/s)
system.mem_ctrls.bw_total::cpu11.inst              55                       # Total bandwidth to/from this memory (bytes/s)
system.mem_ctrls.bw_total::cpu11.data              74                       # Total bandwidth to/from this memory (bytes/s)
system.mem_ctrls.bw_total::cpu12.dtb.walker            2                       # Total bandwidth to/from this memory (bytes/s)
system.mem_ctrls.bw_total::cpu12.itb.walker            1                       # Total bandwidth to/from this memory (bytes/s)
system.mem_ctrls.bw_total::cpu12.inst             155                       # Total bandwidth to/from this memory (bytes/s)
system.mem_ctrls.bw_total::cpu12.data             373                       # Total bandwidth to/from this memory (bytes/s)
system.mem_ctrls.bw_total::cpu13.dtb.walker            3                       # Total bandwidth to/from this memory (bytes/s)
system.mem_ctrls.bw_total::cpu13.itb.walker            2                       # Total bandwidth to/from this memory (bytes/s)
system.mem_ctrls.bw_total::cpu13.inst             118                       # Total bandwidth to/from this memory (bytes/s)
system.mem_ctrls.bw_total::cpu13.data             138                       # Total bandwidth to/from this memory (bytes/s)
system.mem_ctrls.bw_total::cpu14.dtb.walker          231                       # Total bandwidth to/from this memory (bytes/s)
system.mem_ctrls.bw_total::cpu14.itb.walker          167                       # Total bandwidth to/from this memory (bytes/s)
system.mem_ctrls.bw_total::cpu14.inst            3097                       # Total bandwidth to/from this memory (bytes/s)
system.mem_ctrls.bw_total::cpu14.data            2507                       # Total bandwidth to/from this memory (bytes/s)
system.mem_ctrls.bw_total::cpu15.dtb.walker           10                       # Total bandwidth to/from this memory (bytes/s)
system.mem_ctrls.bw_total::cpu15.itb.walker            4                       # Total bandwidth to/from this memory (bytes/s)
system.mem_ctrls.bw_total::cpu15.inst             286                       # Total bandwidth to/from this memory (bytes/s)
system.mem_ctrls.bw_total::cpu15.data             277                       # Total bandwidth to/from this memory (bytes/s)
system.mem_ctrls.bw_total::total                49770                       # Total bandwidth to/from this memory (bytes/s)
system.mem_ctrls.readReqs                           0                       # Number of read requests accepted
system.mem_ctrls.writeReqs                          0                       # Number of write requests accepted
system.mem_ctrls.readBursts                         0                       # Number of DRAM read bursts, including those serviced by the write queue
system.mem_ctrls.writeBursts                        0                       # Number of DRAM write bursts, including those merged in the write queue
system.mem_ctrls.bytesReadDRAM                      0                       # Total number of bytes read from DRAM
system.mem_ctrls.bytesReadWrQ                       0                       # Total number of bytes read from write queue
system.mem_ctrls.bytesWritten                       0                       # Total number of bytes written to DRAM
system.mem_ctrls.bytesReadSys                       0                       # Total read bytes from the system interface side
system.mem_ctrls.bytesWrittenSys                    0                       # Total written bytes from the system interface side
system.mem_ctrls.servicedByWrQ                      0                       # Number of DRAM read bursts serviced by the write queue
system.mem_ctrls.mergedWrBursts                     0                       # Number of DRAM write bursts merged with an existing one
system.mem_ctrls.neitherReadNorWriteReqs            0                       # Number of requests that are neither read nor write
system.mem_ctrls.perBankRdBursts::0                 0                       # Per bank write bursts
system.mem_ctrls.perBankRdBursts::1                 0                       # Per bank write bursts
system.mem_ctrls.perBankRdBursts::2                 0                       # Per bank write bursts
system.mem_ctrls.perBankRdBursts::3                 0                       # Per bank write bursts
system.mem_ctrls.perBankRdBursts::4                 0                       # Per bank write bursts
system.mem_ctrls.perBankRdBursts::5                 0                       # Per bank write bursts
system.mem_ctrls.perBankRdBursts::6                 0                       # Per bank write bursts
system.mem_ctrls.perBankRdBursts::7                 0                       # Per bank write bursts
system.mem_ctrls.perBankRdBursts::8                 0                       # Per bank write bursts
system.mem_ctrls.perBankRdBursts::9                 0                       # Per bank write bursts
system.mem_ctrls.perBankRdBursts::10                0                       # Per bank write bursts
system.mem_ctrls.perBankRdBursts::11                0                       # Per bank write bursts
system.mem_ctrls.perBankRdBursts::12                0                       # Per bank write bursts
system.mem_ctrls.perBankRdBursts::13                0                       # Per bank write bursts
system.mem_ctrls.perBankRdBursts::14                0                       # Per bank write bursts
system.mem_ctrls.perBankRdBursts::15                0                       # Per bank write bursts
system.mem_ctrls.perBankRdBursts::16                0                       # Per bank write bursts
system.mem_ctrls.perBankRdBursts::17                0                       # Per bank write bursts
system.mem_ctrls.perBankRdBursts::18                0                       # Per bank write bursts
system.mem_ctrls.perBankRdBursts::19                0                       # Per bank write bursts
system.mem_ctrls.perBankRdBursts::20                0                       # Per bank write bursts
system.mem_ctrls.perBankRdBursts::21                0                       # Per bank write bursts
system.mem_ctrls.perBankRdBursts::22                0                       # Per bank write bursts
system.mem_ctrls.perBankRdBursts::23                0                       # Per bank write bursts
system.mem_ctrls.perBankRdBursts::24                0                       # Per bank write bursts
system.mem_ctrls.perBankRdBursts::25                0                       # Per bank write bursts
system.mem_ctrls.perBankRdBursts::26                0                       # Per bank write bursts
system.mem_ctrls.perBankRdBursts::27                0                       # Per bank write bursts
system.mem_ctrls.perBankRdBursts::28                0                       # Per bank write bursts
system.mem_ctrls.perBankRdBursts::29                0                       # Per bank write bursts
system.mem_ctrls.perBankRdBursts::30                0                       # Per bank write bursts
system.mem_ctrls.perBankRdBursts::31                0                       # Per bank write bursts
system.mem_ctrls.perBankWrBursts::0                 0                       # Per bank write bursts
system.mem_ctrls.perBankWrBursts::1                 0                       # Per bank write bursts
system.mem_ctrls.perBankWrBursts::2                 0                       # Per bank write bursts
system.mem_ctrls.perBankWrBursts::3                 0                       # Per bank write bursts
system.mem_ctrls.perBankWrBursts::4                 0                       # Per bank write bursts
system.mem_ctrls.perBankWrBursts::5                 0                       # Per bank write bursts
system.mem_ctrls.perBankWrBursts::6                 0                       # Per bank write bursts
system.mem_ctrls.perBankWrBursts::7                 0                       # Per bank write bursts
system.mem_ctrls.perBankWrBursts::8                 0                       # Per bank write bursts
system.mem_ctrls.perBankWrBursts::9                 0                       # Per bank write bursts
system.mem_ctrls.perBankWrBursts::10                0                       # Per bank write bursts
system.mem_ctrls.perBankWrBursts::11                0                       # Per bank write bursts
system.mem_ctrls.perBankWrBursts::12                0                       # Per bank write bursts
system.mem_ctrls.perBankWrBursts::13                0                       # Per bank write bursts
system.mem_ctrls.perBankWrBursts::14                0                       # Per bank write bursts
system.mem_ctrls.perBankWrBursts::15                0                       # Per bank write bursts
system.mem_ctrls.perBankWrBursts::16                0                       # Per bank write bursts
system.mem_ctrls.perBankWrBursts::17                0                       # Per bank write bursts
system.mem_ctrls.perBankWrBursts::18                0                       # Per bank write bursts
system.mem_ctrls.perBankWrBursts::19                0                       # Per bank write bursts
system.mem_ctrls.perBankWrBursts::20                0                       # Per bank write bursts
system.mem_ctrls.perBankWrBursts::21                0                       # Per bank write bursts
system.mem_ctrls.perBankWrBursts::22                0                       # Per bank write bursts
system.mem_ctrls.perBankWrBursts::23                0                       # Per bank write bursts
system.mem_ctrls.perBankWrBursts::24                0                       # Per bank write bursts
system.mem_ctrls.perBankWrBursts::25                0                       # Per bank write bursts
system.mem_ctrls.perBankWrBursts::26                0                       # Per bank write bursts
system.mem_ctrls.perBankWrBursts::27                0                       # Per bank write bursts
system.mem_ctrls.perBankWrBursts::28                0                       # Per bank write bursts
system.mem_ctrls.perBankWrBursts::29                0                       # Per bank write bursts
system.mem_ctrls.perBankWrBursts::30                0                       # Per bank write bursts
system.mem_ctrls.perBankWrBursts::31                0                       # Per bank write bursts
system.mem_ctrls.numRdRetry                         0                       # Number of times read queue was full causing retry
system.mem_ctrls.numWrRetry                         0                       # Number of times write queue was full causing retry
system.mem_ctrls.totGap                             0                       # Total gap between requests
system.mem_ctrls.readPktSize::0                     0                       # Read request sizes (log2)
system.mem_ctrls.readPktSize::1                     0                       # Read request sizes (log2)
system.mem_ctrls.readPktSize::2                     0                       # Read request sizes (log2)
system.mem_ctrls.readPktSize::3                     0                       # Read request sizes (log2)
system.mem_ctrls.readPktSize::4                     0                       # Read request sizes (log2)
system.mem_ctrls.readPktSize::5                     0                       # Read request sizes (log2)
system.mem_ctrls.readPktSize::6                     0                       # Read request sizes (log2)
system.mem_ctrls.writePktSize::0                    0                       # Write request sizes (log2)
system.mem_ctrls.writePktSize::1                    0                       # Write request sizes (log2)
system.mem_ctrls.writePktSize::2                    0                       # Write request sizes (log2)
system.mem_ctrls.writePktSize::3                    0                       # Write request sizes (log2)
system.mem_ctrls.writePktSize::4                    0                       # Write request sizes (log2)
system.mem_ctrls.writePktSize::5                    0                       # Write request sizes (log2)
system.mem_ctrls.writePktSize::6                    0                       # Write request sizes (log2)
system.mem_ctrls.rdQLenPdf::0                       0                       # What read queue length does an incoming req see
system.mem_ctrls.rdQLenPdf::1                       0                       # What read queue length does an incoming req see
system.mem_ctrls.rdQLenPdf::2                       0                       # What read queue length does an incoming req see
system.mem_ctrls.rdQLenPdf::3                       0                       # What read queue length does an incoming req see
system.mem_ctrls.rdQLenPdf::4                       0                       # What read queue length does an incoming req see
system.mem_ctrls.rdQLenPdf::5                       0                       # What read queue length does an incoming req see
system.mem_ctrls.rdQLenPdf::6                       0                       # What read queue length does an incoming req see
system.mem_ctrls.rdQLenPdf::7                       0                       # What read queue length does an incoming req see
system.mem_ctrls.rdQLenPdf::8                       0                       # What read queue length does an incoming req see
system.mem_ctrls.rdQLenPdf::9                       0                       # What read queue length does an incoming req see
system.mem_ctrls.rdQLenPdf::10                      0                       # What read queue length does an incoming req see
system.mem_ctrls.rdQLenPdf::11                      0                       # What read queue length does an incoming req see
system.mem_ctrls.rdQLenPdf::12                      0                       # What read queue length does an incoming req see
system.mem_ctrls.rdQLenPdf::13                      0                       # What read queue length does an incoming req see
system.mem_ctrls.rdQLenPdf::14                      0                       # What read queue length does an incoming req see
system.mem_ctrls.rdQLenPdf::15                      0                       # What read queue length does an incoming req see
system.mem_ctrls.rdQLenPdf::16                      0                       # What read queue length does an incoming req see
system.mem_ctrls.rdQLenPdf::17                      0                       # What read queue length does an incoming req see
system.mem_ctrls.rdQLenPdf::18                      0                       # What read queue length does an incoming req see
system.mem_ctrls.rdQLenPdf::19                      0                       # What read queue length does an incoming req see
system.mem_ctrls.rdQLenPdf::20                      0                       # What read queue length does an incoming req see
system.mem_ctrls.rdQLenPdf::21                      0                       # What read queue length does an incoming req see
system.mem_ctrls.rdQLenPdf::22                      0                       # What read queue length does an incoming req see
system.mem_ctrls.rdQLenPdf::23                      0                       # What read queue length does an incoming req see
system.mem_ctrls.rdQLenPdf::24                      0                       # What read queue length does an incoming req see
system.mem_ctrls.rdQLenPdf::25                      0                       # What read queue length does an incoming req see
system.mem_ctrls.rdQLenPdf::26                      0                       # What read queue length does an incoming req see
system.mem_ctrls.rdQLenPdf::27                      0                       # What read queue length does an incoming req see
system.mem_ctrls.rdQLenPdf::28                      0                       # What read queue length does an incoming req see
system.mem_ctrls.rdQLenPdf::29                      0                       # What read queue length does an incoming req see
system.mem_ctrls.rdQLenPdf::30                      0                       # What read queue length does an incoming req see
system.mem_ctrls.rdQLenPdf::31                      0                       # What read queue length does an incoming req see
system.mem_ctrls.rdQLenPdf::32                      0                       # What read queue length does an incoming req see
system.mem_ctrls.rdQLenPdf::33                      0                       # What read queue length does an incoming req see
system.mem_ctrls.rdQLenPdf::34                      0                       # What read queue length does an incoming req see
system.mem_ctrls.rdQLenPdf::35                      0                       # What read queue length does an incoming req see
system.mem_ctrls.rdQLenPdf::36                      0                       # What read queue length does an incoming req see
system.mem_ctrls.rdQLenPdf::37                      0                       # What read queue length does an incoming req see
system.mem_ctrls.rdQLenPdf::38                      0                       # What read queue length does an incoming req see
system.mem_ctrls.rdQLenPdf::39                      0                       # What read queue length does an incoming req see
system.mem_ctrls.rdQLenPdf::40                      0                       # What read queue length does an incoming req see
system.mem_ctrls.rdQLenPdf::41                      0                       # What read queue length does an incoming req see
system.mem_ctrls.rdQLenPdf::42                      0                       # What read queue length does an incoming req see
system.mem_ctrls.rdQLenPdf::43                      0                       # What read queue length does an incoming req see
system.mem_ctrls.rdQLenPdf::44                      0                       # What read queue length does an incoming req see
system.mem_ctrls.rdQLenPdf::45                      0                       # What read queue length does an incoming req see
system.mem_ctrls.rdQLenPdf::46                      0                       # What read queue length does an incoming req see
system.mem_ctrls.rdQLenPdf::47                      0                       # What read queue length does an incoming req see
system.mem_ctrls.rdQLenPdf::48                      0                       # What read queue length does an incoming req see
system.mem_ctrls.rdQLenPdf::49                      0                       # What read queue length does an incoming req see
system.mem_ctrls.rdQLenPdf::50                      0                       # What read queue length does an incoming req see
system.mem_ctrls.rdQLenPdf::51                      0                       # What read queue length does an incoming req see
system.mem_ctrls.rdQLenPdf::52                      0                       # What read queue length does an incoming req see
system.mem_ctrls.rdQLenPdf::53                      0                       # What read queue length does an incoming req see
system.mem_ctrls.rdQLenPdf::54                      0                       # What read queue length does an incoming req see
system.mem_ctrls.rdQLenPdf::55                      0                       # What read queue length does an incoming req see
system.mem_ctrls.rdQLenPdf::56                      0                       # What read queue length does an incoming req see
system.mem_ctrls.rdQLenPdf::57                      0                       # What read queue length does an incoming req see
system.mem_ctrls.rdQLenPdf::58                      0                       # What read queue length does an incoming req see
system.mem_ctrls.rdQLenPdf::59                      0                       # What read queue length does an incoming req see
system.mem_ctrls.rdQLenPdf::60                      0                       # What read queue length does an incoming req see
system.mem_ctrls.rdQLenPdf::61                      0                       # What read queue length does an incoming req see
system.mem_ctrls.rdQLenPdf::62                      0                       # What read queue length does an incoming req see
system.mem_ctrls.rdQLenPdf::63                      0                       # What read queue length does an incoming req see
system.mem_ctrls.wrQLenPdf::0                       0                       # What write queue length does an incoming req see
system.mem_ctrls.wrQLenPdf::1                       0                       # What write queue length does an incoming req see
system.mem_ctrls.wrQLenPdf::2                       0                       # What write queue length does an incoming req see
system.mem_ctrls.wrQLenPdf::3                       0                       # What write queue length does an incoming req see
system.mem_ctrls.wrQLenPdf::4                       0                       # What write queue length does an incoming req see
system.mem_ctrls.wrQLenPdf::5                       0                       # What write queue length does an incoming req see
system.mem_ctrls.wrQLenPdf::6                       0                       # What write queue length does an incoming req see
system.mem_ctrls.wrQLenPdf::7                       0                       # What write queue length does an incoming req see
system.mem_ctrls.wrQLenPdf::8                       0                       # What write queue length does an incoming req see
system.mem_ctrls.wrQLenPdf::9                       0                       # What write queue length does an incoming req see
system.mem_ctrls.wrQLenPdf::10                      0                       # What write queue length does an incoming req see
system.mem_ctrls.wrQLenPdf::11                      0                       # What write queue length does an incoming req see
system.mem_ctrls.wrQLenPdf::12                      0                       # What write queue length does an incoming req see
system.mem_ctrls.wrQLenPdf::13                      0                       # What write queue length does an incoming req see
system.mem_ctrls.wrQLenPdf::14                      0                       # What write queue length does an incoming req see
system.mem_ctrls.wrQLenPdf::15                      0                       # What write queue length does an incoming req see
system.mem_ctrls.wrQLenPdf::16                      0                       # What write queue length does an incoming req see
system.mem_ctrls.wrQLenPdf::17                      0                       # What write queue length does an incoming req see
system.mem_ctrls.wrQLenPdf::18                      0                       # What write queue length does an incoming req see
system.mem_ctrls.wrQLenPdf::19                      0                       # What write queue length does an incoming req see
system.mem_ctrls.wrQLenPdf::20                      0                       # What write queue length does an incoming req see
system.mem_ctrls.wrQLenPdf::21                      0                       # What write queue length does an incoming req see
system.mem_ctrls.wrQLenPdf::22                      0                       # What write queue length does an incoming req see
system.mem_ctrls.wrQLenPdf::23                      0                       # What write queue length does an incoming req see
system.mem_ctrls.wrQLenPdf::24                      0                       # What write queue length does an incoming req see
system.mem_ctrls.wrQLenPdf::25                      0                       # What write queue length does an incoming req see
system.mem_ctrls.wrQLenPdf::26                      0                       # What write queue length does an incoming req see
system.mem_ctrls.wrQLenPdf::27                      0                       # What write queue length does an incoming req see
system.mem_ctrls.wrQLenPdf::28                      0                       # What write queue length does an incoming req see
system.mem_ctrls.wrQLenPdf::29                      0                       # What write queue length does an incoming req see
system.mem_ctrls.wrQLenPdf::30                      0                       # What write queue length does an incoming req see
system.mem_ctrls.wrQLenPdf::31                      0                       # What write queue length does an incoming req see
system.mem_ctrls.wrQLenPdf::32                      0                       # What write queue length does an incoming req see
system.mem_ctrls.wrQLenPdf::33                      0                       # What write queue length does an incoming req see
system.mem_ctrls.wrQLenPdf::34                      0                       # What write queue length does an incoming req see
system.mem_ctrls.wrQLenPdf::35                      0                       # What write queue length does an incoming req see
system.mem_ctrls.wrQLenPdf::36                      0                       # What write queue length does an incoming req see
system.mem_ctrls.wrQLenPdf::37                      0                       # What write queue length does an incoming req see
system.mem_ctrls.wrQLenPdf::38                      0                       # What write queue length does an incoming req see
system.mem_ctrls.wrQLenPdf::39                      0                       # What write queue length does an incoming req see
system.mem_ctrls.wrQLenPdf::40                      0                       # What write queue length does an incoming req see
system.mem_ctrls.wrQLenPdf::41                      0                       # What write queue length does an incoming req see
system.mem_ctrls.wrQLenPdf::42                      0                       # What write queue length does an incoming req see
system.mem_ctrls.wrQLenPdf::43                      0                       # What write queue length does an incoming req see
system.mem_ctrls.wrQLenPdf::44                      0                       # What write queue length does an incoming req see
system.mem_ctrls.wrQLenPdf::45                      0                       # What write queue length does an incoming req see
system.mem_ctrls.wrQLenPdf::46                      0                       # What write queue length does an incoming req see
system.mem_ctrls.wrQLenPdf::47                      0                       # What write queue length does an incoming req see
system.mem_ctrls.wrQLenPdf::48                      0                       # What write queue length does an incoming req see
system.mem_ctrls.wrQLenPdf::49                      0                       # What write queue length does an incoming req see
system.mem_ctrls.wrQLenPdf::50                      0                       # What write queue length does an incoming req see
system.mem_ctrls.wrQLenPdf::51                      0                       # What write queue length does an incoming req see
system.mem_ctrls.wrQLenPdf::52                      0                       # What write queue length does an incoming req see
system.mem_ctrls.wrQLenPdf::53                      0                       # What write queue length does an incoming req see
system.mem_ctrls.wrQLenPdf::54                      0                       # What write queue length does an incoming req see
system.mem_ctrls.wrQLenPdf::55                      0                       # What write queue length does an incoming req see
system.mem_ctrls.wrQLenPdf::56                      0                       # What write queue length does an incoming req see
system.mem_ctrls.wrQLenPdf::57                      0                       # What write queue length does an incoming req see
system.mem_ctrls.wrQLenPdf::58                      0                       # What write queue length does an incoming req see
system.mem_ctrls.wrQLenPdf::59                      0                       # What write queue length does an incoming req see
system.mem_ctrls.wrQLenPdf::60                      0                       # What write queue length does an incoming req see
system.mem_ctrls.wrQLenPdf::61                      0                       # What write queue length does an incoming req see
system.mem_ctrls.wrQLenPdf::62                      0                       # What write queue length does an incoming req see
system.mem_ctrls.wrQLenPdf::63                      0                       # What write queue length does an incoming req see
system.mem_ctrls.wrQLenPdf::64                      0                       # What write queue length does an incoming req see
system.mem_ctrls.wrQLenPdf::65                      0                       # What write queue length does an incoming req see
system.mem_ctrls.wrQLenPdf::66                      0                       # What write queue length does an incoming req see
system.mem_ctrls.wrQLenPdf::67                      0                       # What write queue length does an incoming req see
system.mem_ctrls.wrQLenPdf::68                      0                       # What write queue length does an incoming req see
system.mem_ctrls.wrQLenPdf::69                      0                       # What write queue length does an incoming req see
system.mem_ctrls.wrQLenPdf::70                      0                       # What write queue length does an incoming req see
system.mem_ctrls.wrQLenPdf::71                      0                       # What write queue length does an incoming req see
system.mem_ctrls.wrQLenPdf::72                      0                       # What write queue length does an incoming req see
system.mem_ctrls.wrQLenPdf::73                      0                       # What write queue length does an incoming req see
system.mem_ctrls.wrQLenPdf::74                      0                       # What write queue length does an incoming req see
system.mem_ctrls.wrQLenPdf::75                      0                       # What write queue length does an incoming req see
system.mem_ctrls.wrQLenPdf::76                      0                       # What write queue length does an incoming req see
system.mem_ctrls.wrQLenPdf::77                      0                       # What write queue length does an incoming req see
system.mem_ctrls.wrQLenPdf::78                      0                       # What write queue length does an incoming req see
system.mem_ctrls.wrQLenPdf::79                      0                       # What write queue length does an incoming req see
system.mem_ctrls.wrQLenPdf::80                      0                       # What write queue length does an incoming req see
system.mem_ctrls.wrQLenPdf::81                      0                       # What write queue length does an incoming req see
system.mem_ctrls.wrQLenPdf::82                      0                       # What write queue length does an incoming req see
system.mem_ctrls.wrQLenPdf::83                      0                       # What write queue length does an incoming req see
system.mem_ctrls.wrQLenPdf::84                      0                       # What write queue length does an incoming req see
system.mem_ctrls.wrQLenPdf::85                      0                       # What write queue length does an incoming req see
system.mem_ctrls.wrQLenPdf::86                      0                       # What write queue length does an incoming req see
system.mem_ctrls.wrQLenPdf::87                      0                       # What write queue length does an incoming req see
system.mem_ctrls.wrQLenPdf::88                      0                       # What write queue length does an incoming req see
system.mem_ctrls.wrQLenPdf::89                      0                       # What write queue length does an incoming req see
system.mem_ctrls.wrQLenPdf::90                      0                       # What write queue length does an incoming req see
system.mem_ctrls.wrQLenPdf::91                      0                       # What write queue length does an incoming req see
system.mem_ctrls.wrQLenPdf::92                      0                       # What write queue length does an incoming req see
system.mem_ctrls.wrQLenPdf::93                      0                       # What write queue length does an incoming req see
system.mem_ctrls.wrQLenPdf::94                      0                       # What write queue length does an incoming req see
system.mem_ctrls.wrQLenPdf::95                      0                       # What write queue length does an incoming req see
system.mem_ctrls.wrQLenPdf::96                      0                       # What write queue length does an incoming req see
system.mem_ctrls.wrQLenPdf::97                      0                       # What write queue length does an incoming req see
system.mem_ctrls.wrQLenPdf::98                      0                       # What write queue length does an incoming req see
system.mem_ctrls.wrQLenPdf::99                      0                       # What write queue length does an incoming req see
system.mem_ctrls.wrQLenPdf::100                     0                       # What write queue length does an incoming req see
system.mem_ctrls.wrQLenPdf::101                     0                       # What write queue length does an incoming req see
system.mem_ctrls.wrQLenPdf::102                     0                       # What write queue length does an incoming req see
system.mem_ctrls.wrQLenPdf::103                     0                       # What write queue length does an incoming req see
system.mem_ctrls.wrQLenPdf::104                     0                       # What write queue length does an incoming req see
system.mem_ctrls.wrQLenPdf::105                     0                       # What write queue length does an incoming req see
system.mem_ctrls.wrQLenPdf::106                     0                       # What write queue length does an incoming req see
system.mem_ctrls.wrQLenPdf::107                     0                       # What write queue length does an incoming req see
system.mem_ctrls.wrQLenPdf::108                     0                       # What write queue length does an incoming req see
system.mem_ctrls.wrQLenPdf::109                     0                       # What write queue length does an incoming req see
system.mem_ctrls.wrQLenPdf::110                     0                       # What write queue length does an incoming req see
system.mem_ctrls.wrQLenPdf::111                     0                       # What write queue length does an incoming req see
system.mem_ctrls.wrQLenPdf::112                     0                       # What write queue length does an incoming req see
system.mem_ctrls.wrQLenPdf::113                     0                       # What write queue length does an incoming req see
system.mem_ctrls.wrQLenPdf::114                     0                       # What write queue length does an incoming req see
system.mem_ctrls.wrQLenPdf::115                     0                       # What write queue length does an incoming req see
system.mem_ctrls.wrQLenPdf::116                     0                       # What write queue length does an incoming req see
system.mem_ctrls.wrQLenPdf::117                     0                       # What write queue length does an incoming req see
system.mem_ctrls.wrQLenPdf::118                     0                       # What write queue length does an incoming req see
system.mem_ctrls.wrQLenPdf::119                     0                       # What write queue length does an incoming req see
system.mem_ctrls.wrQLenPdf::120                     0                       # What write queue length does an incoming req see
system.mem_ctrls.wrQLenPdf::121                     0                       # What write queue length does an incoming req see
system.mem_ctrls.wrQLenPdf::122                     0                       # What write queue length does an incoming req see
system.mem_ctrls.wrQLenPdf::123                     0                       # What write queue length does an incoming req see
system.mem_ctrls.wrQLenPdf::124                     0                       # What write queue length does an incoming req see
system.mem_ctrls.wrQLenPdf::125                     0                       # What write queue length does an incoming req see
system.mem_ctrls.wrQLenPdf::126                     0                       # What write queue length does an incoming req see
system.mem_ctrls.wrQLenPdf::127                     0                       # What write queue length does an incoming req see
system.mem_ctrls.totQLat                            0                       # Total ticks spent queuing
system.mem_ctrls.totMemAccLat                       0                       # Total ticks spent from burst creation until serviced by the DRAM
system.mem_ctrls.totBusLat                          0                       # Total ticks spent in databus transfers
system.mem_ctrls.avgQLat                          nan                       # Average queueing delay per DRAM burst
system.mem_ctrls.avgBusLat                        nan                       # Average bus latency per DRAM burst
system.mem_ctrls.avgMemAccLat                     nan                       # Average memory access latency per DRAM burst
system.mem_ctrls.avgRdBW                         0.00                       # Average DRAM read bandwidth in MiByte/s
system.mem_ctrls.avgWrBW                         0.00                       # Average achieved write bandwidth in MiByte/s
system.mem_ctrls.avgRdBWSys                      0.00                       # Average system read bandwidth in MiByte/s
system.mem_ctrls.avgWrBWSys                      0.00                       # Average system write bandwidth in MiByte/s
system.mem_ctrls.peakBW                      19207.00                       # Theoretical peak bandwidth in MiByte/s
system.mem_ctrls.busUtil                         0.00                       # Data bus utilization in percentage
system.mem_ctrls.busUtilRead                     0.00                       # Data bus utilization in percentage for reads
system.mem_ctrls.busUtilWrite                    0.00                       # Data bus utilization in percentage for writes
system.mem_ctrls.avgRdQLen                       0.00                       # Average read queue length when enqueuing
system.mem_ctrls.avgWrQLen                       0.00                       # Average write queue length when enqueuing
system.mem_ctrls.readRowHits                        0                       # Number of row buffer hits during reads
system.mem_ctrls.writeRowHits                       0                       # Number of row buffer hits during writes
system.mem_ctrls.readRowHitRate                   nan                       # Row buffer hit rate for reads
system.mem_ctrls.writeRowHitRate                  nan                       # Row buffer hit rate for writes
system.mem_ctrls.avgGap                           nan                       # Average gap between requests
system.mem_ctrls.pageHitRate                      nan                       # Row buffer hit rate, read and write combined
system.mem_ctrls_0.actEnergy                        0                       # Energy for activate commands per rank (pJ)
system.mem_ctrls_0.preEnergy                        0                       # Energy for precharge commands per rank (pJ)
system.mem_ctrls_0.readEnergy                       0                       # Energy for read commands per rank (pJ)
system.mem_ctrls_0.writeEnergy                      0                       # Energy for write commands per rank (pJ)
system.mem_ctrls_0.refreshEnergy                    0                       # Energy for refresh commands per rank (pJ)
system.mem_ctrls_0.actBackEnergy                    0                       # Energy for active background per rank (pJ)
system.mem_ctrls_0.preBackEnergy         1974698544933996                       # Energy for precharge background per rank (pJ)
system.mem_ctrls_0.actPowerDownEnergy               0                       # Energy for active power-down per rank (pJ)
system.mem_ctrls_0.prePowerDownEnergy               0                       # Energy for precharge power-down per rank (pJ)
system.mem_ctrls_0.selfRefreshEnergy                0                       # Energy for self refresh per rank (pJ)
system.mem_ctrls_0.totalEnergy           1974698544933996                       # Total energy per rank (pJ)
system.mem_ctrls_0.averagePower            163.200000                       # Core power per rank (mW)
system.mem_ctrls_0.totalIdleTime                    0                       # Total Idle time Per DRAM Rank
system.mem_ctrls_0.memoryStateTime::IDLE 18846991589916000                       # Time in different power states
system.mem_ctrls_0.memoryStateTime::REF             0                       # Time in different power states
system.mem_ctrls_0.memoryStateTime::SREF            0                       # Time in different power states
system.mem_ctrls_0.memoryStateTime::PRE_PDN            0                       # Time in different power states
system.mem_ctrls_0.memoryStateTime::ACT             0                       # Time in different power states
system.mem_ctrls_0.memoryStateTime::ACT_PDN            0                       # Time in different power states
system.mem_ctrls_1.actEnergy                        0                       # Energy for activate commands per rank (pJ)
system.mem_ctrls_1.preEnergy                        0                       # Energy for precharge commands per rank (pJ)
system.mem_ctrls_1.readEnergy                       0                       # Energy for read commands per rank (pJ)
system.mem_ctrls_1.writeEnergy                      0                       # Energy for write commands per rank (pJ)
system.mem_ctrls_1.refreshEnergy                    0                       # Energy for refresh commands per rank (pJ)
system.mem_ctrls_1.actBackEnergy                    0                       # Energy for active background per rank (pJ)
system.mem_ctrls_1.preBackEnergy         1974698544933996                       # Energy for precharge background per rank (pJ)
system.mem_ctrls_1.actPowerDownEnergy               0                       # Energy for active power-down per rank (pJ)
system.mem_ctrls_1.prePowerDownEnergy               0                       # Energy for precharge power-down per rank (pJ)
system.mem_ctrls_1.selfRefreshEnergy                0                       # Energy for self refresh per rank (pJ)
[...]
system.tol2bus12.pkt_size_system.cpu12.dcache.mem_side::system.l212.cpu_side     23459516                       # Cumulative packet size per connected master and slave (bytes)
system.tol2bus12.pkt_size_system.cpu12.itb.walker.dma::system.l212.cpu_side       404584                       # Cumulative packet size per connected master and slave (bytes)
system.tol2bus12.pkt_size_system.cpu12.dtb.walker.dma::system.l212.cpu_side       394832                       # Cumulative packet size per connected master and slave (bytes)
system.tol2bus12.pkt_size::total             48988788                       # Cumulative packet size per connected master and slave (bytes)
system.tol2bus12.snoops                        831412                       # Total snoops (count)
system.tol2bus12.snoopTraffic                 1776576                       # Total snoop traffic (bytes)
system.tol2bus12.snoop_fanout::samples        1386319                       # Request fanout histogram
system.tol2bus12.snoop_fanout::mean          0.105619                       # Request fanout histogram
system.tol2bus12.snoop_fanout::stdev         0.307350                       # Request fanout histogram
system.tol2bus12.snoop_fanout::underflows            0      0.00%      0.00% # Request fanout histogram
system.tol2bus12.snoop_fanout::0              1239897     89.44%     89.44% # Request fanout histogram
system.tol2bus12.snoop_fanout::1               146422     10.56%    100.00% # Request fanout histogram
system.tol2bus12.snoop_fanout::2                    0      0.00%    100.00% # Request fanout histogram
system.tol2bus12.snoop_fanout::overflows            0      0.00%    100.00% # Request fanout histogram
system.tol2bus12.snoop_fanout::min_value            0                       # Request fanout histogram
system.tol2bus12.snoop_fanout::max_value            1                       # Request fanout histogram
system.tol2bus12.snoop_fanout::total          1386319                       # Request fanout histogram
system.tol2bus12.directResponses                    0                       # auxiliar stat for checking how reasonable wireless model is
system.tol2bus13.snoop_filter.tot_requests      1198506                       # Total number of requests made to the snoop filter.
system.tol2bus13.snoop_filter.hit_single_requests       605833                       # Number of requests hitting in the snoop filter with a single holder of the requested data.
system.tol2bus13.snoop_filter.hit_multi_requests           12                       # Number of requests hitting in the snoop filter with multiple (>1) holders of the requested data.
system.tol2bus13.snoop_filter.tot_snoops       109021                       # Total number of snoops made to the snoop filter.
system.tol2bus13.snoop_filter.hit_single_snoops       109020                       # Number of snoops hitting in the snoop filter with a single holder of the requested data.
system.tol2bus13.snoop_filter.hit_multi_snoops            1                       # Number of snoops hitting in the snoop filter with multiple (>1) holders of the requested data.
system.tol2bus13.pwrStateResidencyTicks::UNDEFINED 18846991589916000                       # Cumulative time (in ticks) in various power states
system.tol2bus13.trans_dist::ReadReq           194540                       # Transaction distribution
system.tol2bus13.trans_dist::ReadResp          743956                       # Transaction distribution
system.tol2bus13.trans_dist::WriteReq             327                       # Transaction distribution
system.tol2bus13.trans_dist::WriteResp            327                       # Transaction distribution
system.tol2bus13.trans_dist::WritebackDirty        89013                       # Transaction distribution
system.tol2bus13.trans_dist::WritebackClean       399392                       # Transaction distribution
system.tol2bus13.trans_dist::CleanEvict         97815                       # Transaction distribution
system.tol2bus13.trans_dist::UpgradeReq          5354                       # Transaction distribution
system.tol2bus13.trans_dist::SCUpgradeReq         4466                       # Transaction distribution
system.tol2bus13.trans_dist::UpgradeResp         9820                       # Transaction distribution
system.tol2bus13.trans_dist::ReadExReq          30895                       # Transaction distribution
system.tol2bus13.trans_dist::ReadExResp         30895                       # Transaction distribution
system.tol2bus13.trans_dist::ReadCleanReq       399904                       # Transaction distribution
system.tol2bus13.trans_dist::ReadSharedReq       149512                       # Transaction distribution
system.tol2bus13.trans_dist::InvalidateReq        12367                       # Transaction distribution
system.tol2bus13.trans_dist::InvalidateResp        12367                       # Transaction distribution
system.tol2bus13.pkt_count_system.cpu13.icache.mem_side::system.l213.cpu_side      1199200                       # Packet count per connected master and slave (bytes)
system.tol2bus13.pkt_count_system.cpu13.dcache.mem_side::system.l213.cpu_side       594040                       # Packet count per connected master and slave (bytes)
system.tol2bus13.pkt_count_system.cpu13.itb.walker.dma::system.l213.cpu_side       246486                       # Packet count per connected master and slave (bytes)
system.tol2bus13.pkt_count_system.cpu13.dtb.walker.dma::system.l213.cpu_side       141224                       # Packet count per connected master and slave (bytes)
system.tol2bus13.pkt_count::total             2180950                       # Packet count per connected master and slave (bytes)
system.tol2bus13.pkt_size_system.cpu13.icache.mem_side::system.l213.cpu_side     51154944                       # Cumulative packet size per connected master and slave (bytes)
system.tol2bus13.pkt_size_system.cpu13.dcache.mem_side::system.l213.cpu_side     17246928                       # Cumulative packet size per connected master and slave (bytes)
system.tol2bus13.pkt_size_system.cpu13.itb.walker.dma::system.l213.cpu_side       985944                       # Cumulative packet size per connected master and slave (bytes)
system.tol2bus13.pkt_size_system.cpu13.dtb.walker.dma::system.l213.cpu_side       564896                       # Cumulative packet size per connected master and slave (bytes)
system.tol2bus13.pkt_size::total             69952712                       # Cumulative packet size per connected master and slave (bytes)
system.tol2bus13.snoops                        798514                       # Total snoops (count)
system.tol2bus13.snoopTraffic                  684096                       # Total snoop traffic (bytes)
system.tol2bus13.snoop_fanout::samples        1585254                       # Request fanout histogram
system.tol2bus13.snoop_fanout::mean          0.074955                       # Request fanout histogram
system.tol2bus13.snoop_fanout::stdev         0.263320                       # Request fanout histogram
system.tol2bus13.snoop_fanout::underflows            0      0.00%      0.00% # Request fanout histogram
system.tol2bus13.snoop_fanout::0              1466433     92.50%     92.50% # Request fanout histogram
system.tol2bus13.snoop_fanout::1               118820      7.50%    100.00% # Request fanout histogram
system.tol2bus13.snoop_fanout::2                    1      0.00%    100.00% # Request fanout histogram
system.tol2bus13.snoop_fanout::overflows            0      0.00%    100.00% # Request fanout histogram
system.tol2bus13.snoop_fanout::min_value            0                       # Request fanout histogram
system.tol2bus13.snoop_fanout::max_value            2                       # Request fanout histogram
system.tol2bus13.snoop_fanout::total          1585254                       # Request fanout histogram
system.tol2bus13.directResponses                    0                       # auxiliar stat for checking how reasonable wireless model is
system.tol2bus14.snoop_filter.tot_requests     71683128                       # Total number of requests made to the snoop filter.
system.tol2bus14.snoop_filter.hit_single_requests     35852662                       # Number of requests hitting in the snoop filter with a single holder of the requested data.
system.tol2bus14.snoop_filter.hit_multi_requests            0                       # Number of requests hitting in the snoop filter with multiple (>1) holders of the requested data.
system.tol2bus14.snoop_filter.tot_snoops       598009                       # Total number of snoops made to the snoop filter.
system.tol2bus14.snoop_filter.hit_single_snoops       598009                       # Number of snoops hitting in the snoop filter with a single holder of the requested data.
system.tol2bus14.snoop_filter.hit_multi_snoops            0                       # Number of snoops hitting in the snoop filter with multiple (>1) holders of the requested data.
system.tol2bus14.pwrStateResidencyTicks::UNDEFINED 18846991589916000                       # Cumulative time (in ticks) in various power states
system.tol2bus14.trans_dist::ReadReq          9883322                       # Transaction distribution
system.tol2bus14.trans_dist::ReadResp        43964371                       # Transaction distribution
system.tol2bus14.trans_dist::WriteReq            7044                       # Transaction distribution
system.tol2bus14.trans_dist::WriteResp           7044                       # Transaction distribution
system.tol2bus14.trans_dist::WritebackDirty      4067362                       # Transaction distribution
system.tol2bus14.trans_dist::WritebackClean     28025355                       # Transaction distribution
system.tol2bus14.trans_dist::CleanEvict       3625413                       # Transaction distribution
system.tol2bus14.trans_dist::UpgradeReq         76454                       # Transaction distribution
system.tol2bus14.trans_dist::SCUpgradeReq        55837                       # Transaction distribution
system.tol2bus14.trans_dist::UpgradeResp       132291                       # Transaction distribution
system.tol2bus14.trans_dist::ReadExReq        1344779                       # Transaction distribution
system.tol2bus14.trans_dist::ReadExResp       1344779                       # Transaction distribution
system.tol2bus14.trans_dist::ReadCleanReq     28025867                       # Transaction distribution
system.tol2bus14.trans_dist::ReadSharedReq      6055182                       # Transaction distribution
system.tol2bus14.trans_dist::InvalidateReq       406879                       # Transaction distribution
system.tol2bus14.trans_dist::InvalidateResp       406879                       # Transaction distribution
system.tol2bus14.pkt_count_system.cpu14.icache.mem_side::system.l214.cpu_side     84077089                       # Packet count per connected master and slave (bytes)
system.tol2bus14.pkt_count_system.cpu14.dcache.mem_side::system.l214.cpu_side     23596537                       # Packet count per connected master and slave (bytes)
system.tol2bus14.pkt_count_system.cpu14.itb.walker.dma::system.l214.cpu_side     16989450                       # Packet count per connected master and slave (bytes)
system.tol2bus14.pkt_count_system.cpu14.dtb.walker.dma::system.l214.cpu_side      2765782                       # Packet count per connected master and slave (bytes)
system.tol2bus14.pkt_count::total           127428858                       # Packet count per connected master and slave (bytes)
system.tol2bus14.pkt_size_system.cpu14.icache.mem_side::system.l214.cpu_side   3587278208                       # Cumulative packet size per connected master and slave (bytes)
system.tol2bus14.pkt_size_system.cpu14.dcache.mem_side::system.l214.cpu_side    733959672                       # Cumulative packet size per connected master and slave (bytes)
system.tol2bus14.pkt_size_system.cpu14.itb.walker.dma::system.l214.cpu_side     67957800                       # Cumulative packet size per connected master and slave (bytes)
system.tol2bus14.pkt_size_system.cpu14.dtb.walker.dma::system.l214.cpu_side     11063128                       # Cumulative packet size per connected master and slave (bytes)
system.tol2bus14.pkt_size::total           4400258808                       # Cumulative packet size per connected master and slave (bytes)
system.tol2bus14.snoops                       2254418                       # Total snoops (count)
system.tol2bus14.snoopTraffic                18230400                       # Total snoop traffic (bytes)
system.tol2bus14.snoop_fanout::samples       47901128                       # Request fanout histogram
system.tol2bus14.snoop_fanout::mean          0.012484                       # Request fanout histogram
system.tol2bus14.snoop_fanout::stdev         0.111033                       # Request fanout histogram
system.tol2bus14.snoop_fanout::underflows            0      0.00%      0.00% # Request fanout histogram
system.tol2bus14.snoop_fanout::0             47303119     98.75%     98.75% # Request fanout histogram
system.tol2bus14.snoop_fanout::1               598009      1.25%    100.00% # Request fanout histogram
system.tol2bus14.snoop_fanout::2                    0      0.00%    100.00% # Request fanout histogram
system.tol2bus14.snoop_fanout::overflows            0      0.00%    100.00% # Request fanout histogram
system.tol2bus14.snoop_fanout::min_value            0                       # Request fanout histogram
system.tol2bus14.snoop_fanout::max_value            1                       # Request fanout histogram
system.tol2bus14.snoop_fanout::total         47901128                       # Request fanout histogram
system.tol2bus14.directResponses                    0                       # auxiliar stat for checking how reasonable wireless model is
system.tol2bus15.snoop_filter.tot_requests      6420242                       # Total number of requests made to the snoop filter.
system.tol2bus15.snoop_filter.hit_single_requests      3219583                       # Number of requests hitting in the snoop filter with a single holder of the requested data.
system.tol2bus15.snoop_filter.hit_multi_requests           11                       # Number of requests hitting in the snoop filter with multiple (>1) holders of the requested data.
system.tol2bus15.snoop_filter.tot_snoops       218799                       # Total number of snoops made to the snoop filter.
system.tol2bus15.snoop_filter.hit_single_snoops       218799                       # Number of snoops hitting in the snoop filter with a single holder of the requested data.
system.tol2bus15.snoop_filter.hit_multi_snoops            0                       # Number of snoops hitting in the snoop filter with multiple (>1) holders of the requested data.
system.tol2bus15.pwrStateResidencyTicks::UNDEFINED 18846991589916000                       # Cumulative time (in ticks) in various power states
system.tol2bus15.trans_dist::ReadReq          1097504                       # Transaction distribution
system.tol2bus15.trans_dist::ReadResp         4122479                       # Transaction distribution
system.tol2bus15.trans_dist::WriteReq            2254                       # Transaction distribution
system.tol2bus15.trans_dist::WriteResp           2254                       # Transaction distribution
system.tol2bus15.trans_dist::WritebackDirty       381371                       # Transaction distribution
system.tol2bus15.trans_dist::WritebackClean      2332912                       # Transaction distribution
system.tol2bus15.trans_dist::CleanEvict        451203                       # Transaction distribution
system.tol2bus15.trans_dist::UpgradeReq         25182                       # Transaction distribution
system.tol2bus15.trans_dist::SCUpgradeReq        22456                       # Transaction distribution
system.tol2bus15.trans_dist::UpgradeResp        47638                       # Transaction distribution
system.tol2bus15.trans_dist::ReadExReq         132195                       # Transaction distribution
system.tol2bus15.trans_dist::ReadExResp        132195                       # Transaction distribution
system.tol2bus15.trans_dist::ReadCleanReq      2333424                       # Transaction distribution
system.tol2bus15.trans_dist::ReadSharedReq       691551                       # Transaction distribution
system.tol2bus15.trans_dist::InvalidateReq        43704                       # Transaction distribution
system.tol2bus15.trans_dist::InvalidateResp        43704                       # Transaction distribution
system.tol2bus15.pkt_count_system.cpu15.icache.mem_side::system.l215.cpu_side      6999760                       # Packet count per connected master and slave (bytes)
system.tol2bus15.pkt_count_system.cpu15.dcache.mem_side::system.l215.cpu_side      2676134                       # Packet count per connected master and slave (bytes)
system.tol2bus15.pkt_count_system.cpu15.itb.walker.dma::system.l215.cpu_side      1447096                       # Packet count per connected master and slave (bytes)
system.tol2bus15.pkt_count_system.cpu15.dtb.walker.dma::system.l215.cpu_side       739036                       # Packet count per connected master and slave (bytes)
system.tol2bus15.pkt_count::total            11862026                       # Packet count per connected master and slave (bytes)
system.tol2bus15.pkt_size_system.cpu15.icache.mem_side::system.l215.cpu_side    298645504                       # Cumulative packet size per connected master and slave (bytes)
system.tol2bus15.pkt_size_system.cpu15.dcache.mem_side::system.l215.cpu_side     77153491                       # Cumulative packet size per connected master and slave (bytes)
system.tol2bus15.pkt_size_system.cpu15.itb.walker.dma::system.l215.cpu_side      5788384                       # Cumulative packet size per connected master and slave (bytes)
system.tol2bus15.pkt_size_system.cpu15.dtb.walker.dma::system.l215.cpu_side      2956144                       # Cumulative packet size per connected master and slave (bytes)
system.tol2bus15.pkt_size::total            384543523                       # Cumulative packet size per connected master and slave (bytes)
system.tol2bus15.snoops                       1116315                       # Total snoops (count)
system.tol2bus15.snoopTraffic                 1454336                       # Total snoop traffic (bytes)
system.tol2bus15.snoop_fanout::samples        5400076                       # Request fanout histogram
system.tol2bus15.snoop_fanout::mean          0.041676                       # Request fanout histogram
system.tol2bus15.snoop_fanout::stdev         0.199848                       # Request fanout histogram
system.tol2bus15.snoop_fanout::underflows            0      0.00%      0.00% # Request fanout histogram
system.tol2bus15.snoop_fanout::0              5175022     95.83%     95.83% # Request fanout histogram
system.tol2bus15.snoop_fanout::1               225054      4.17%    100.00% # Request fanout histogram
system.tol2bus15.snoop_fanout::2                    0      0.00%    100.00% # Request fanout histogram
system.tol2bus15.snoop_fanout::overflows            0      0.00%    100.00% # Request fanout histogram
system.tol2bus15.snoop_fanout::min_value            0                       # Request fanout histogram
system.tol2bus15.snoop_fanout::max_value            1                       # Request fanout histogram
system.tol2bus15.snoop_fanout::total          5400076                       # Request fanout histogram
system.tol2bus15.directResponses                    0                       # auxiliar stat for checking how reasonable wireless model is

---------- End Simulation Statistics   ----------
