
---------- Begin Simulation Statistics ----------
sim_seconds                              14882.837826                       # Number of seconds simulated
sim_ticks                                14882837826256000                       # Number of ticks simulated
final_tick                               21629960881037000                       # Number of ticks from beginning of simulation (restored from checkpoints and never reset)
sim_freq                                 1000000000000                       # Frequency of simulated ticks
host_inst_rate                                2395512                       # Simulator instruction rate (inst/s)
host_op_rate                                  2656139                       # Simulator op (including micro ops) rate (op/s)
host_tick_rate                           4029041409295                       # Simulator tick rate (ticks/s)
host_mem_usage                                5043852                       # Number of bytes of host memory used
host_seconds                                  3693.89                       # Real time elapsed on the host
sim_insts                                  8848760795                       # Number of instructions simulated
sim_ops                                    9811486538                       # Number of ops (including micro ops) simulated
system.voltage_domain.voltage                       1                       # Voltage in Volts
system.clk_domain.clock                           625                       # Clock period in ticks
system.bootmem.pwrStateResidencyTicks::UNDEFINED 21629960881037000                       # Cumulative time (in ticks) in various power states
system.mem_ctrls.pwrStateResidencyTicks::UNDEFINED 21629960881037000                       # Cumulative time (in ticks) in various power states
system.mem_ctrls.bytes_read::cpu00.dtb.walker       105024                       # Number of bytes read from this memory
system.mem_ctrls.bytes_read::cpu00.itb.walker        68544                       # Number of bytes read from this memory
system.mem_ctrls.bytes_read::cpu00.inst       5255680                       # Number of bytes read from this memory
system.mem_ctrls.bytes_read::cpu00.data      74565184                       # Number of bytes read from this memory
system.mem_ctrls.bytes_read::cpu01.dtb.walker       110720                       # Number of bytes read from this memory
system.mem_ctrls.bytes_read::cpu01.itb.walker        46848                       # Number of bytes read from this memory
system.mem_ctrls.bytes_read::cpu01.inst       3491200                       # Number of bytes read from this memory
system.mem_ctrls.bytes_read::cpu01.data      12636928                       # Number of bytes read from this memory
system.mem_ctrls.bytes_read::cpu02.dtb.walker        32384                       # Number of bytes read from this memory
system.mem_ctrls.bytes_read::cpu02.itb.walker        18688                       # Number of bytes read from this memory
system.mem_ctrls.bytes_read::cpu02.inst       1963328                       # Number of bytes read from this memory
system.mem_ctrls.bytes_read::cpu02.data       3763008                       # Number of bytes read from this memory
system.mem_ctrls.bytes_read::cpu03.dtb.walker         8576                       # Number of bytes read from this memory
system.mem_ctrls.bytes_read::cpu03.itb.walker         6400                       # Number of bytes read from this memory
system.mem_ctrls.bytes_read::cpu03.inst        746880                       # Number of bytes read from this memory
system.mem_ctrls.bytes_read::cpu03.data        894912                       # Number of bytes read from this memory
system.mem_ctrls.bytes_read::cpu04.dtb.walker        32832                       # Number of bytes read from this memory
system.mem_ctrls.bytes_read::cpu04.itb.walker        18496                       # Number of bytes read from this memory
system.mem_ctrls.bytes_read::cpu04.inst       1566272                       # Number of bytes read from this memory
system.mem_ctrls.bytes_read::cpu04.data       2883584                       # Number of bytes read from this memory
system.mem_ctrls.bytes_read::cpu05.dtb.walker        24896                       # Number of bytes read from this memory
system.mem_ctrls.bytes_read::cpu05.itb.walker        21888                       # Number of bytes read from this memory
system.mem_ctrls.bytes_read::cpu05.inst       1554176                       # Number of bytes read from this memory
system.mem_ctrls.bytes_read::cpu05.data       3912064                       # Number of bytes read from this memory
system.mem_ctrls.bytes_read::cpu06.dtb.walker         9024                       # Number of bytes read from this memory
system.mem_ctrls.bytes_read::cpu06.itb.walker         6336                       # Number of bytes read from this memory
system.mem_ctrls.bytes_read::cpu06.inst        749568                       # Number of bytes read from this memory
system.mem_ctrls.bytes_read::cpu06.data        947328                       # Number of bytes read from this memory
system.mem_ctrls.bytes_read::cpu07.dtb.walker        35648                       # Number of bytes read from this memory
system.mem_ctrls.bytes_read::cpu07.itb.walker        28864                       # Number of bytes read from this memory
system.mem_ctrls.bytes_read::cpu07.inst       2302400                       # Number of bytes read from this memory
system.mem_ctrls.bytes_read::cpu07.data       4356480                       # Number of bytes read from this memory
system.mem_ctrls.bytes_read::cpu08.dtb.walker       715712                       # Number of bytes read from this memory
system.mem_ctrls.bytes_read::cpu08.itb.walker        39552                       # Number of bytes read from this memory
system.mem_ctrls.bytes_read::cpu08.inst       6201856                       # Number of bytes read from this memory
system.mem_ctrls.bytes_read::cpu08.data       7819840                       # Number of bytes read from this memory
system.mem_ctrls.bytes_read::cpu09.dtb.walker        25152                       # Number of bytes read from this memory
system.mem_ctrls.bytes_read::cpu09.itb.walker        12288                       # Number of bytes read from this memory
system.mem_ctrls.bytes_read::cpu09.inst       1637952                       # Number of bytes read from this memory
system.mem_ctrls.bytes_read::cpu09.data       2445376                       # Number of bytes read from this memory
system.mem_ctrls.bytes_read::cpu10.dtb.walker        21120                       # Number of bytes read from this memory
system.mem_ctrls.bytes_read::cpu10.itb.walker        20864                       # Number of bytes read from this memory
system.mem_ctrls.bytes_read::cpu10.inst       1029952                       # Number of bytes read from this memory
system.mem_ctrls.bytes_read::cpu10.data       1758400                       # Number of bytes read from this memory
system.mem_ctrls.bytes_read::cpu11.dtb.walker         8064                       # Number of bytes read from this memory
system.mem_ctrls.bytes_read::cpu11.itb.walker         5824                       # Number of bytes read from this memory
system.mem_ctrls.bytes_read::cpu11.inst        664832                       # Number of bytes read from this memory
system.mem_ctrls.bytes_read::cpu11.data        886400                       # Number of bytes read from this memory
system.mem_ctrls.bytes_read::cpu12.dtb.walker        30400                       # Number of bytes read from this memory
system.mem_ctrls.bytes_read::cpu12.itb.walker        29824                       # Number of bytes read from this memory
system.mem_ctrls.bytes_read::cpu12.inst       2004032                       # Number of bytes read from this memory
system.mem_ctrls.bytes_read::cpu12.data       6138304                       # Number of bytes read from this memory
system.mem_ctrls.bytes_read::cpu13.dtb.walker       272768                       # Number of bytes read from this memory
system.mem_ctrls.bytes_read::cpu13.itb.walker        33536                       # Number of bytes read from this memory
system.mem_ctrls.bytes_read::cpu13.inst       3446720                       # Number of bytes read from this memory
system.mem_ctrls.bytes_read::cpu13.data       3131456                       # Number of bytes read from this memory
system.mem_ctrls.bytes_read::cpu14.dtb.walker      3354240                       # Number of bytes read from this memory
system.mem_ctrls.bytes_read::cpu14.itb.walker      2448704                       # Number of bytes read from this memory
system.mem_ctrls.bytes_read::cpu14.inst      47176192                       # Number of bytes read from this memory
system.mem_ctrls.bytes_read::cpu14.data      39641152                       # Number of bytes read from this memory
system.mem_ctrls.bytes_read::cpu15.dtb.walker      3888896                       # Number of bytes read from this memory
system.mem_ctrls.bytes_read::cpu15.itb.walker       107840                       # Number of bytes read from this memory
system.mem_ctrls.bytes_read::cpu15.inst       8952384                       # Number of bytes read from this memory
system.mem_ctrls.bytes_read::cpu15.data     174231296                       # Number of bytes read from this memory
system.mem_ctrls.bytes_read::pci_ide              128                       # Number of bytes read from this memory
system.mem_ctrls.bytes_read::total          440345216                       # Number of bytes read from this memory
system.mem_ctrls.bytes_inst_read::cpu00.inst      5255680                       # Number of instructions bytes read from this memory
system.mem_ctrls.bytes_inst_read::cpu01.inst      3491200                       # Number of instructions bytes read from this memory
system.mem_ctrls.bytes_inst_read::cpu02.inst      1963328                       # Number of instructions bytes read from this memory
system.mem_ctrls.bytes_inst_read::cpu03.inst       746880                       # Number of instructions bytes read from this memory
system.mem_ctrls.bytes_inst_read::cpu04.inst      1566272                       # Number of instructions bytes read from this memory
system.mem_ctrls.bytes_inst_read::cpu05.inst      1554176                       # Number of instructions bytes read from this memory
system.mem_ctrls.bytes_inst_read::cpu06.inst       749568                       # Number of instructions bytes read from this memory
system.mem_ctrls.bytes_inst_read::cpu07.inst      2302400                       # Number of instructions bytes read from this memory
system.mem_ctrls.bytes_inst_read::cpu08.inst      6201856                       # Number of instructions bytes read from this memory
system.mem_ctrls.bytes_inst_read::cpu09.inst      1637952                       # Number of instructions bytes read from this memory
system.mem_ctrls.bytes_inst_read::cpu10.inst      1029952                       # Number of instructions bytes read from this memory
system.mem_ctrls.bytes_inst_read::cpu11.inst       664832                       # Number of instructions bytes read from this memory
system.mem_ctrls.bytes_inst_read::cpu12.inst      2004032                       # Number of instructions bytes read from this memory
system.mem_ctrls.bytes_inst_read::cpu13.inst      3446720                       # Number of instructions bytes read from this memory
system.mem_ctrls.bytes_inst_read::cpu14.inst     47176192                       # Number of instructions bytes read from this memory
system.mem_ctrls.bytes_inst_read::cpu15.inst      8952384                       # Number of instructions bytes read from this memory
system.mem_ctrls.bytes_inst_read::total      88743424                       # Number of instructions bytes read from this memory
system.mem_ctrls.bytes_written::writebacks    189557056                       # Number of bytes written to this memory
system.mem_ctrls.bytes_written::total       189557056                       # Number of bytes written to this memory
system.mem_ctrls.num_reads::cpu00.dtb.walker         1641                       # Number of read requests responded to by this memory
system.mem_ctrls.num_reads::cpu00.itb.walker         1071                       # Number of read requests responded to by this memory
system.mem_ctrls.num_reads::cpu00.inst          82120                       # Number of read requests responded to by this memory
system.mem_ctrls.num_reads::cpu00.data        1165081                       # Number of read requests responded to by this memory
system.mem_ctrls.num_reads::cpu01.dtb.walker         1730                       # Number of read requests responded to by this memory
system.mem_ctrls.num_reads::cpu01.itb.walker          732                       # Number of read requests responded to by this memory
system.mem_ctrls.num_reads::cpu01.inst          54550                       # Number of read requests responded to by this memory
system.mem_ctrls.num_reads::cpu01.data         197452                       # Number of read requests responded to by this memory
system.mem_ctrls.num_reads::cpu02.dtb.walker          506                       # Number of read requests responded to by this memory
system.mem_ctrls.num_reads::cpu02.itb.walker          292                       # Number of read requests responded to by this memory
system.mem_ctrls.num_reads::cpu02.inst          30677                       # Number of read requests responded to by this memory
system.mem_ctrls.num_reads::cpu02.data          58797                       # Number of read requests responded to by this memory
system.mem_ctrls.num_reads::cpu03.dtb.walker          134                       # Number of read requests responded to by this memory
system.mem_ctrls.num_reads::cpu03.itb.walker          100                       # Number of read requests responded to by this memory
system.mem_ctrls.num_reads::cpu03.inst          11670                       # Number of read requests responded to by this memory
system.mem_ctrls.num_reads::cpu03.data          13983                       # Number of read requests responded to by this memory
system.mem_ctrls.num_reads::cpu04.dtb.walker          513                       # Number of read requests responded to by this memory
system.mem_ctrls.num_reads::cpu04.itb.walker          289                       # Number of read requests responded to by this memory
system.mem_ctrls.num_reads::cpu04.inst          24473                       # Number of read requests responded to by this memory
system.mem_ctrls.num_reads::cpu04.data          45056                       # Number of read requests responded to by this memory
system.mem_ctrls.num_reads::cpu05.dtb.walker          389                       # Number of read requests responded to by this memory
system.mem_ctrls.num_reads::cpu05.itb.walker          342                       # Number of read requests responded to by this memory
system.mem_ctrls.num_reads::cpu05.inst          24284                       # Number of read requests responded to by this memory
system.mem_ctrls.num_reads::cpu05.data          61126                       # Number of read requests responded to by this memory
system.mem_ctrls.num_reads::cpu06.dtb.walker          141                       # Number of read requests responded to by this memory
system.mem_ctrls.num_reads::cpu06.itb.walker           99                       # Number of read requests responded to by this memory
system.mem_ctrls.num_reads::cpu06.inst          11712                       # Number of read requests responded to by this memory
system.mem_ctrls.num_reads::cpu06.data          14802                       # Number of read requests responded to by this memory
system.mem_ctrls.num_reads::cpu07.dtb.walker          557                       # Number of read requests responded to by this memory
system.mem_ctrls.num_reads::cpu07.itb.walker          451                       # Number of read requests responded to by this memory
system.mem_ctrls.num_reads::cpu07.inst          35975                       # Number of read requests responded to by this memory
system.mem_ctrls.num_reads::cpu07.data          68070                       # Number of read requests responded to by this memory
system.mem_ctrls.num_reads::cpu08.dtb.walker        11183                       # Number of read requests responded to by this memory
system.mem_ctrls.num_reads::cpu08.itb.walker          618                       # Number of read requests responded to by this memory
system.mem_ctrls.num_reads::cpu08.inst          96904                       # Number of read requests responded to by this memory
system.mem_ctrls.num_reads::cpu08.data         122185                       # Number of read requests responded to by this memory
system.mem_ctrls.num_reads::cpu09.dtb.walker          393                       # Number of read requests responded to by this memory
system.mem_ctrls.num_reads::cpu09.itb.walker          192                       # Number of read requests responded to by this memory
system.mem_ctrls.num_reads::cpu09.inst          25593                       # Number of read requests responded to by this memory
system.mem_ctrls.num_reads::cpu09.data          38209                       # Number of read requests responded to by this memory
system.mem_ctrls.num_reads::cpu10.dtb.walker          330                       # Number of read requests responded to by this memory
system.mem_ctrls.num_reads::cpu10.itb.walker          326                       # Number of read requests responded to by this memory
system.mem_ctrls.num_reads::cpu10.inst          16093                       # Number of read requests responded to by this memory
system.mem_ctrls.num_reads::cpu10.data          27475                       # Number of read requests responded to by this memory
system.mem_ctrls.num_reads::cpu11.dtb.walker          126                       # Number of read requests responded to by this memory
system.mem_ctrls.num_reads::cpu11.itb.walker           91                       # Number of read requests responded to by this memory
system.mem_ctrls.num_reads::cpu11.inst          10388                       # Number of read requests responded to by this memory
system.mem_ctrls.num_reads::cpu11.data          13850                       # Number of read requests responded to by this memory
system.mem_ctrls.num_reads::cpu12.dtb.walker          475                       # Number of read requests responded to by this memory
system.mem_ctrls.num_reads::cpu12.itb.walker          466                       # Number of read requests responded to by this memory
system.mem_ctrls.num_reads::cpu12.inst          31313                       # Number of read requests responded to by this memory
system.mem_ctrls.num_reads::cpu12.data          95911                       # Number of read requests responded to by this memory
system.mem_ctrls.num_reads::cpu13.dtb.walker         4262                       # Number of read requests responded to by this memory
system.mem_ctrls.num_reads::cpu13.itb.walker          524                       # Number of read requests responded to by this memory
system.mem_ctrls.num_reads::cpu13.inst          53855                       # Number of read requests responded to by this memory
system.mem_ctrls.num_reads::cpu13.data          48929                       # Number of read requests responded to by this memory
system.mem_ctrls.num_reads::cpu14.dtb.walker        52410                       # Number of read requests responded to by this memory
system.mem_ctrls.num_reads::cpu14.itb.walker        38261                       # Number of read requests responded to by this memory
system.mem_ctrls.num_reads::cpu14.inst         737128                       # Number of read requests responded to by this memory
system.mem_ctrls.num_reads::cpu14.data         619393                       # Number of read requests responded to by this memory
system.mem_ctrls.num_reads::cpu15.dtb.walker        60764                       # Number of read requests responded to by this memory
system.mem_ctrls.num_reads::cpu15.itb.walker         1685                       # Number of read requests responded to by this memory
system.mem_ctrls.num_reads::cpu15.inst         139881                       # Number of read requests responded to by this memory
system.mem_ctrls.num_reads::cpu15.data        2722364                       # Number of read requests responded to by this memory
system.mem_ctrls.num_reads::pci_ide                 2                       # Number of read requests responded to by this memory
system.mem_ctrls.num_reads::total             6880394                       # Number of read requests responded to by this memory
system.mem_ctrls.num_writes::writebacks       2961829                       # Number of write requests responded to by this memory
system.mem_ctrls.num_writes::total            2961829                       # Number of write requests responded to by this memory
system.mem_ctrls.bw_read::cpu00.dtb.walker            7                       # Total read bandwidth from this memory (bytes/s)
system.mem_ctrls.bw_read::cpu00.itb.walker            5                       # Total read bandwidth from this memory (bytes/s)
system.mem_ctrls.bw_read::cpu00.inst              353                       # Total read bandwidth from this memory (bytes/s)
system.mem_ctrls.bw_read::cpu00.data             5010                       # Total read bandwidth from this memory (bytes/s)
system.mem_ctrls.bw_read::cpu01.dtb.walker            7                       # Total read bandwidth from this memory (bytes/s)
system.mem_ctrls.bw_read::cpu01.itb.walker            3                       # Total read bandwidth from this memory (bytes/s)
system.mem_ctrls.bw_read::cpu01.inst              235                       # Total read bandwidth from this memory (bytes/s)
system.mem_ctrls.bw_read::cpu01.data              849                       # Total read bandwidth from this memory (bytes/s)
system.mem_ctrls.bw_read::cpu02.dtb.walker            2                       # Total read bandwidth from this memory (bytes/s)
system.mem_ctrls.bw_read::cpu02.itb.walker            1                       # Total read bandwidth from this memory (bytes/s)
system.mem_ctrls.bw_read::cpu02.inst              132                       # Total read bandwidth from this memory (bytes/s)
system.mem_ctrls.bw_read::cpu02.data              253                       # Total read bandwidth from this memory (bytes/s)
system.mem_ctrls.bw_read::cpu03.dtb.walker            1                       # Total read bandwidth from this memory (bytes/s)
system.mem_ctrls.bw_read::cpu03.itb.walker            0                       # Total read bandwidth from this memory (bytes/s)
system.mem_ctrls.bw_read::cpu03.inst               50                       # Total read bandwidth from this memory (bytes/s)
system.mem_ctrls.bw_read::cpu03.data               60                       # Total read bandwidth from this memory (bytes/s)
system.mem_ctrls.bw_read::cpu04.dtb.walker            2                       # Total read bandwidth from this memory (bytes/s)
system.mem_ctrls.bw_read::cpu04.itb.walker            1                       # Total read bandwidth from this memory (bytes/s)
system.mem_ctrls.bw_read::cpu04.inst              105                       # Total read bandwidth from this memory (bytes/s)
system.mem_ctrls.bw_read::cpu04.data              194                       # Total read bandwidth from this memory (bytes/s)
system.mem_ctrls.bw_read::cpu05.dtb.walker            2                       # Total read bandwidth from this memory (bytes/s)
system.mem_ctrls.bw_read::cpu05.itb.walker            1                       # Total read bandwidth from this memory (bytes/s)
system.mem_ctrls.bw_read::cpu05.inst              104                       # Total read bandwidth from this memory (bytes/s)
system.mem_ctrls.bw_read::cpu05.data              263                       # Total read bandwidth from this memory (bytes/s)
system.mem_ctrls.bw_read::cpu06.dtb.walker            1                       # Total read bandwidth from this memory (bytes/s)
system.mem_ctrls.bw_read::cpu06.itb.walker            0                       # Total read bandwidth from this memory (bytes/s)
system.mem_ctrls.bw_read::cpu06.inst               50                       # Total read bandwidth from this memory (bytes/s)
system.mem_ctrls.bw_read::cpu06.data               64                       # Total read bandwidth from this memory (bytes/s)
system.mem_ctrls.bw_read::cpu07.dtb.walker            2                       # Total read bandwidth from this memory (bytes/s)
system.mem_ctrls.bw_read::cpu07.itb.walker            2                       # Total read bandwidth from this memory (bytes/s)
system.mem_ctrls.bw_read::cpu07.inst              155                       # Total read bandwidth from this memory (bytes/s)
system.mem_ctrls.bw_read::cpu07.data              293                       # Total read bandwidth from this memory (bytes/s)
system.mem_ctrls.bw_read::cpu08.dtb.walker           48                       # Total read bandwidth from this memory (bytes/s)
system.mem_ctrls.bw_read::cpu08.itb.walker            3                       # Total read bandwidth from this memory (bytes/s)
system.mem_ctrls.bw_read::cpu08.inst              417                       # Total read bandwidth from this memory (bytes/s)
system.mem_ctrls.bw_read::cpu08.data              525                       # Total read bandwidth from this memory (bytes/s)
system.mem_ctrls.bw_read::cpu09.dtb.walker            2                       # Total read bandwidth from this memory (bytes/s)
system.mem_ctrls.bw_read::cpu09.itb.walker            1                       # Total read bandwidth from this memory (bytes/s)
system.mem_ctrls.bw_read::cpu09.inst              110                       # Total read bandwidth from this memory (bytes/s)
system.mem_ctrls.bw_read::cpu09.data              164                       # Total read bandwidth from this memory (bytes/s)
system.mem_ctrls.bw_read::cpu10.dtb.walker            1                       # Total read bandwidth from this memory (bytes/s)
system.mem_ctrls.bw_read::cpu10.itb.walker            1                       # Total read bandwidth from this memory (bytes/s)
system.mem_ctrls.bw_read::cpu10.inst               69                       # Total read bandwidth from this memory (bytes/s)
system.mem_ctrls.bw_read::cpu10.data              118                       # Total read bandwidth from this memory (bytes/s)
system.mem_ctrls.bw_read::cpu11.dtb.walker            1                       # Total read bandwidth from this memory (bytes/s)
system.mem_ctrls.bw_read::cpu11.itb.walker            0                       # Total read bandwidth from this memory (bytes/s)
system.mem_ctrls.bw_read::cpu11.inst               45                       # Total read bandwidth from this memory (bytes/s)
system.mem_ctrls.bw_read::cpu11.data               60                       # Total read bandwidth from this memory (bytes/s)
system.mem_ctrls.bw_read::cpu12.dtb.walker            2                       # Total read bandwidth from this memory (bytes/s)
system.mem_ctrls.bw_read::cpu12.itb.walker            2                       # Total read bandwidth from this memory (bytes/s)
system.mem_ctrls.bw_read::cpu12.inst              135                       # Total read bandwidth from this memory (bytes/s)
system.mem_ctrls.bw_read::cpu12.data              412                       # Total read bandwidth from this memory (bytes/s)
system.mem_ctrls.bw_read::cpu13.dtb.walker           18                       # Total read bandwidth from this memory (bytes/s)
system.mem_ctrls.bw_read::cpu13.itb.walker            2                       # Total read bandwidth from this memory (bytes/s)
system.mem_ctrls.bw_read::cpu13.inst              232                       # Total read bandwidth from this memory (bytes/s)
system.mem_ctrls.bw_read::cpu13.data              210                       # Total read bandwidth from this memory (bytes/s)
system.mem_ctrls.bw_read::cpu14.dtb.walker          225                       # Total read bandwidth from this memory (bytes/s)
system.mem_ctrls.bw_read::cpu14.itb.walker          165                       # Total read bandwidth from this memory (bytes/s)
system.mem_ctrls.bw_read::cpu14.inst             3170                       # Total read bandwidth from this memory (bytes/s)
system.mem_ctrls.bw_read::cpu14.data             2664                       # Total read bandwidth from this memory (bytes/s)
system.mem_ctrls.bw_read::cpu15.dtb.walker          261                       # Total read bandwidth from this memory (bytes/s)
system.mem_ctrls.bw_read::cpu15.itb.walker            7                       # Total read bandwidth from this memory (bytes/s)
system.mem_ctrls.bw_read::cpu15.inst              602                       # Total read bandwidth from this memory (bytes/s)
system.mem_ctrls.bw_read::cpu15.data            11707                       # Total read bandwidth from this memory (bytes/s)
system.mem_ctrls.bw_read::pci_ide                   0                       # Total read bandwidth from this memory (bytes/s)
system.mem_ctrls.bw_read::total                 29587                       # Total read bandwidth from this memory (bytes/s)
system.mem_ctrls.bw_inst_read::cpu00.inst          353                       # Instruction read bandwidth from this memory (bytes/s)
system.mem_ctrls.bw_inst_read::cpu01.inst          235                       # Instruction read bandwidth from this memory (bytes/s)
system.mem_ctrls.bw_inst_read::cpu02.inst          132                       # Instruction read bandwidth from this memory (bytes/s)
system.mem_ctrls.bw_inst_read::cpu03.inst           50                       # Instruction read bandwidth from this memory (bytes/s)
system.mem_ctrls.bw_inst_read::cpu04.inst          105                       # Instruction read bandwidth from this memory (bytes/s)
system.mem_ctrls.bw_inst_read::cpu05.inst          104                       # Instruction read bandwidth from this memory (bytes/s)
system.mem_ctrls.bw_inst_read::cpu06.inst           50                       # Instruction read bandwidth from this memory (bytes/s)
system.mem_ctrls.bw_inst_read::cpu07.inst          155                       # Instruction read bandwidth from this memory (bytes/s)
system.mem_ctrls.bw_inst_read::cpu08.inst          417                       # Instruction read bandwidth from this memory (bytes/s)
system.mem_ctrls.bw_inst_read::cpu09.inst          110                       # Instruction read bandwidth from this memory (bytes/s)
system.mem_ctrls.bw_inst_read::cpu10.inst           69                       # Instruction read bandwidth from this memory (bytes/s)
system.mem_ctrls.bw_inst_read::cpu11.inst           45                       # Instruction read bandwidth from this memory (bytes/s)
system.mem_ctrls.bw_inst_read::cpu12.inst          135                       # Instruction read bandwidth from this memory (bytes/s)
system.mem_ctrls.bw_inst_read::cpu13.inst          232                       # Instruction read bandwidth from this memory (bytes/s)
system.mem_ctrls.bw_inst_read::cpu14.inst         3170                       # Instruction read bandwidth from this memory (bytes/s)
system.mem_ctrls.bw_inst_read::cpu15.inst          602                       # Instruction read bandwidth from this memory (bytes/s)
system.mem_ctrls.bw_inst_read::total             5963                       # Instruction read bandwidth from this memory (bytes/s)
system.mem_ctrls.bw_write::writebacks           12737                       # Write bandwidth from this memory (bytes/s)
system.mem_ctrls.bw_write::total                12737                       # Write bandwidth from this memory (bytes/s)
system.mem_ctrls.bw_total::writebacks           12737                       # Total bandwidth to/from this memory (bytes/s)
system.mem_ctrls.bw_total::cpu00.dtb.walker            7                       # Total bandwidth to/from this memory (bytes/s)
system.mem_ctrls.bw_total::cpu00.itb.walker            5                       # Total bandwidth to/from this memory (bytes/s)
system.mem_ctrls.bw_total::cpu00.inst             353                       # Total bandwidth to/from this memory (bytes/s)
system.mem_ctrls.bw_total::cpu00.data            5010                       # Total bandwidth to/from this memory (bytes/s)
system.mem_ctrls.bw_total::cpu01.dtb.walker            7                       # Total bandwidth to/from this memory (bytes/s)
system.mem_ctrls.bw_total::cpu01.itb.walker            3                       # Total bandwidth to/from this memory (bytes/s)
system.mem_ctrls.bw_total::cpu01.inst             235                       # Total bandwidth to/from this memory (bytes/s)
system.mem_ctrls.bw_total::cpu01.data             849                       # Total bandwidth to/from this memory (bytes/s)
system.mem_ctrls.bw_total::cpu02.dtb.walker            2                       # Total bandwidth to/from this memory (bytes/s)
system.mem_ctrls.bw_total::cpu02.itb.walker            1                       # Total bandwidth to/from this memory (bytes/s)
system.mem_ctrls.bw_total::cpu02.inst             132                       # Total bandwidth to/from this memory (bytes/s)
system.mem_ctrls.bw_total::cpu02.data             253                       # Total bandwidth to/from this memory (bytes/s)
system.mem_ctrls.bw_total::cpu03.dtb.walker            1                       # Total bandwidth to/from this memory (bytes/s)
system.mem_ctrls.bw_total::cpu03.itb.walker            0                       # Total bandwidth to/from this memory (bytes/s)
system.mem_ctrls.bw_total::cpu03.inst              50                       # Total bandwidth to/from this memory (bytes/s)
system.mem_ctrls.bw_total::cpu03.data              60                       # Total bandwidth to/from this memory (bytes/s)
system.mem_ctrls.bw_total::cpu04.dtb.walker            2                       # Total bandwidth to/from this memory (bytes/s)
system.mem_ctrls.bw_total::cpu04.itb.walker            1                       # Total bandwidth to/from this memory (bytes/s)
system.mem_ctrls.bw_total::cpu04.inst             105                       # Total bandwidth to/from this memory (bytes/s)
system.mem_ctrls.bw_total::cpu04.data             194                       # Total bandwidth to/from this memory (bytes/s)
system.mem_ctrls.bw_total::cpu05.dtb.walker            2                       # Total bandwidth to/from this memory (bytes/s)
system.mem_ctrls.bw_total::cpu05.itb.walker            1                       # Total bandwidth to/from this memory (bytes/s)
system.mem_ctrls.bw_total::cpu05.inst             104                       # Total bandwidth to/from this memory (bytes/s)
system.mem_ctrls.bw_total::cpu05.data             263                       # Total bandwidth to/from this memory (bytes/s)
system.mem_ctrls.bw_total::cpu06.dtb.walker            1                       # Total bandwidth to/from this memory (bytes/s)
system.mem_ctrls.bw_total::cpu06.itb.walker            0                       # Total bandwidth to/from this memory (bytes/s)
system.mem_ctrls.bw_total::cpu06.inst              50                       # Total bandwidth to/from this memory (bytes/s)
system.mem_ctrls.bw_total::cpu06.data              64                       # Total bandwidth to/from this memory (bytes/s)
system.mem_ctrls.bw_total::cpu07.dtb.walker            2                       # Total bandwidth to/from this memory (bytes/s)
system.mem_ctrls.bw_total::cpu07.itb.walker            2                       # Total bandwidth to/from this memory (bytes/s)
system.mem_ctrls.bw_total::cpu07.inst             155                       # Total bandwidth to/from this memory (bytes/s)
system.mem_ctrls.bw_total::cpu07.data             293                       # Total bandwidth to/from this memory (bytes/s)
system.mem_ctrls.bw_total::cpu08.dtb.walker           48                       # Total bandwidth to/from this memory (bytes/s)
system.mem_ctrls.bw_total::cpu08.itb.walker            3                       # Total bandwidth to/from this memory (bytes/s)
system.mem_ctrls.bw_total::cpu08.inst             417                       # Total bandwidth to/from this memory (bytes/s)
system.mem_ctrls.bw_total::cpu08.data             525                       # Total bandwidth to/from this memory (bytes/s)
system.mem_ctrls.bw_total::cpu09.dtb.walker            2                       # Total bandwidth to/from this memory (bytes/s)
system.mem_ctrls.bw_total::cpu09.itb.walker            1                       # Total bandwidth to/from this memory (bytes/s)
system.mem_ctrls.bw_total::cpu09.inst             110                       # Total bandwidth to/from this memory (bytes/s)
system.mem_ctrls.bw_total::cpu09.data             164                       # Total bandwidth to/from this memory (bytes/s)
system.mem_ctrls.bw_total::cpu10.dtb.walker            1                       # Total bandwidth to/from this memory (bytes/s)
system.mem_ctrls.bw_total::cpu10.itb.walker            1                       # Total bandwidth to/from this memory (bytes/s)
system.mem_ctrls.bw_total::cpu10.inst              69                       # Total bandwidth to/from this memory (bytes/s)
system.mem_ctrls.bw_total::cpu10.data             118                       # Total bandwidth to/from this memory (bytes/s)
system.mem_ctrls.bw_total::cpu11.dtb.walker            1                       # Total bandwidth to/from this memory (bytes/s)
system.mem_ctrls.bw_total::cpu11.itb.walker            0                       # Total bandwidth to/from this memory (bytes/s)
system.mem_ctrls.bw_total::cpu11.inst              45                       # Total bandwidth to/from this memory (bytes/s)
system.mem_ctrls.bw_total::cpu11.data              60                       # Total bandwidth to/from this memory (bytes/s)
system.mem_ctrls.bw_total::cpu12.dtb.walker            2                       # Total bandwidth to/from this memory (bytes/s)
system.mem_ctrls.bw_total::cpu12.itb.walker            2                       # Total bandwidth to/from this memory (bytes/s)
system.mem_ctrls.bw_total::cpu12.inst             135                       # Total bandwidth to/from this memory (bytes/s)
system.mem_ctrls.bw_total::cpu12.data             412                       # Total bandwidth to/from this memory (bytes/s)
system.mem_ctrls.bw_total::cpu13.dtb.walker           18                       # Total bandwidth to/from this memory (bytes/s)
system.mem_ctrls.bw_total::cpu13.itb.walker            2                       # Total bandwidth to/from this memory (bytes/s)
system.mem_ctrls.bw_total::cpu13.inst             232                       # Total bandwidth to/from this memory (bytes/s)
system.mem_ctrls.bw_total::cpu13.data             210                       # Total bandwidth to/from this memory (bytes/s)
system.mem_ctrls.bw_total::cpu14.dtb.walker          225                       # Total bandwidth to/from this memory (bytes/s)
system.mem_ctrls.bw_total::cpu14.itb.walker          165                       # Total bandwidth to/from this memory (bytes/s)
system.mem_ctrls.bw_total::cpu14.inst            3170                       # Total bandwidth to/from this memory (bytes/s)
system.mem_ctrls.bw_total::cpu14.data            2664                       # Total bandwidth to/from this memory (bytes/s)
system.mem_ctrls.bw_total::cpu15.dtb.walker          261                       # Total bandwidth to/from this memory (bytes/s)
system.mem_ctrls.bw_total::cpu15.itb.walker            7                       # Total bandwidth to/from this memory (bytes/s)
system.mem_ctrls.bw_total::cpu15.inst             602                       # Total bandwidth to/from this memory (bytes/s)
system.mem_ctrls.bw_total::cpu15.data           11707                       # Total bandwidth to/from this memory (bytes/s)
system.mem_ctrls.bw_total::pci_ide                  0                       # Total bandwidth to/from this memory (bytes/s)
system.mem_ctrls.bw_total::total                42324                       # Total bandwidth to/from this memory (bytes/s)
system.mem_ctrls.readReqs                           0                       # Number of read requests accepted
system.mem_ctrls.writeReqs                          0                       # Number of write requests accepted
system.mem_ctrls.readBursts                         0                       # Number of DRAM read bursts, including those serviced by the write queue
system.mem_ctrls.writeBursts                        0                       # Number of DRAM write bursts, including those merged in the write queue
system.mem_ctrls.bytesReadDRAM                      0                       # Total number of bytes read from DRAM
system.mem_ctrls.bytesReadWrQ                       0                       # Total number of bytes read from write queue
system.mem_ctrls.bytesWritten                       0                       # Total number of bytes written to DRAM
system.mem_ctrls.bytesReadSys                       0                       # Total read bytes from the system interface side
system.mem_ctrls.bytesWrittenSys                    0                       # Total written bytes from the system interface side
system.mem_ctrls.servicedByWrQ                      0                       # Number of DRAM read bursts serviced by the write queue
system.mem_ctrls.mergedWrBursts                     0                       # Number of DRAM write bursts merged with an existing one
system.mem_ctrls.neitherReadNorWriteReqs            0                       # Number of requests that are neither read nor write
system.mem_ctrls.perBankRdBursts::0                 0                       # Per bank write bursts
system.mem_ctrls.perBankRdBursts::1                 0                       # Per bank write bursts
system.mem_ctrls.perBankRdBursts::2                 0                       # Per bank write bursts
system.mem_ctrls.perBankRdBursts::3                 0                       # Per bank write bursts
system.mem_ctrls.perBankRdBursts::4                 0                       # Per bank write bursts
system.mem_ctrls.perBankRdBursts::5                 0                       # Per bank write bursts
system.mem_ctrls.perBankRdBursts::6                 0                       # Per bank write bursts
system.mem_ctrls.perBankRdBursts::7                 0                       # Per bank write bursts
system.mem_ctrls.perBankRdBursts::8                 0                       # Per bank write bursts
system.mem_ctrls.perBankRdBursts::9                 0                       # Per bank write bursts
system.mem_ctrls.perBankRdBursts::10                0                       # Per bank write bursts
system.mem_ctrls.perBankRdBursts::11                0                       # Per bank write bursts
system.mem_ctrls.perBankRdBursts::12                0                       # Per bank write bursts
system.mem_ctrls.perBankRdBursts::13                0                       # Per bank write bursts
system.mem_ctrls.perBankRdBursts::14                0                       # Per bank write bursts
system.mem_ctrls.perBankRdBursts::15                0                       # Per bank write bursts
system.mem_ctrls.perBankRdBursts::16                0                       # Per bank write bursts
system.mem_ctrls.perBankRdBursts::17                0                       # Per bank write bursts
system.mem_ctrls.perBankRdBursts::18                0                       # Per bank write bursts
system.mem_ctrls.perBankRdBursts::19                0                       # Per bank write bursts
system.mem_ctrls.perBankRdBursts::20                0                       # Per bank write bursts
system.mem_ctrls.perBankRdBursts::21                0                       # Per bank write bursts
system.mem_ctrls.perBankRdBursts::22                0                       # Per bank write bursts
system.mem_ctrls.perBankRdBursts::23                0                       # Per bank write bursts
system.mem_ctrls.perBankRdBursts::24                0                       # Per bank write bursts
system.mem_ctrls.perBankRdBursts::25                0                       # Per bank write bursts
system.mem_ctrls.perBankRdBursts::26                0                       # Per bank write bursts
system.mem_ctrls.perBankRdBursts::27                0                       # Per bank write bursts
system.mem_ctrls.perBankRdBursts::28                0                       # Per bank write bursts
system.mem_ctrls.perBankRdBursts::29                0                       # Per bank write bursts
system.mem_ctrls.perBankRdBursts::30                0                       # Per bank write bursts
system.mem_ctrls.perBankRdBursts::31                0                       # Per bank write bursts
system.mem_ctrls.perBankWrBursts::0                 0                       # Per bank write bursts
system.mem_ctrls.perBankWrBursts::1                 0                       # Per bank write bursts
system.mem_ctrls.perBankWrBursts::2                 0                       # Per bank write bursts
system.mem_ctrls.perBankWrBursts::3                 0                       # Per bank write bursts
system.mem_ctrls.perBankWrBursts::4                 0                       # Per bank write bursts
system.mem_ctrls.perBankWrBursts::5                 0                       # Per bank write bursts
system.mem_ctrls.perBankWrBursts::6                 0                       # Per bank write bursts
system.mem_ctrls.perBankWrBursts::7                 0                       # Per bank write bursts
system.mem_ctrls.perBankWrBursts::8                 0                       # Per bank write bursts
system.mem_ctrls.perBankWrBursts::9                 0                       # Per bank write bursts
system.mem_ctrls.perBankWrBursts::10                0                       # Per bank write bursts
system.mem_ctrls.perBankWrBursts::11                0                       # Per bank write bursts
system.mem_ctrls.perBankWrBursts::12                0                       # Per bank write bursts
system.mem_ctrls.perBankWrBursts::13                0                       # Per bank write bursts
system.mem_ctrls.perBankWrBursts::14                0                       # Per bank write bursts
system.mem_ctrls.perBankWrBursts::15                0                       # Per bank write bursts
system.mem_ctrls.perBankWrBursts::16                0                       # Per bank write bursts
system.mem_ctrls.perBankWrBursts::17                0                       # Per bank write bursts
system.mem_ctrls.perBankWrBursts::18                0                       # Per bank write bursts
system.mem_ctrls.perBankWrBursts::19                0                       # Per bank write bursts
system.mem_ctrls.perBankWrBursts::20                0                       # Per bank write bursts
system.mem_ctrls.perBankWrBursts::21                0                       # Per bank write bursts
system.mem_ctrls.perBankWrBursts::22                0                       # Per bank write bursts
system.mem_ctrls.perBankWrBursts::23                0                       # Per bank write bursts
system.mem_ctrls.perBankWrBursts::24                0                       # Per bank write bursts
system.mem_ctrls.perBankWrBursts::25                0                       # Per bank write bursts
system.mem_ctrls.perBankWrBursts::26                0                       # Per bank write bursts
system.mem_ctrls.perBankWrBursts::27                0                       # Per bank write bursts
system.mem_ctrls.perBankWrBursts::28                0                       # Per bank write bursts
system.mem_ctrls.perBankWrBursts::29                0                       # Per bank write bursts
system.mem_ctrls.perBankWrBursts::30                0                       # Per bank write bursts
system.mem_ctrls.perBankWrBursts::31                0                       # Per bank write bursts
system.mem_ctrls.numRdRetry                         0                       # Number of times read queue was full causing retry
system.mem_ctrls.numWrRetry                         0                       # Number of times write queue was full causing retry
system.mem_ctrls.totGap                             0                       # Total gap between requests
system.mem_ctrls.readPktSize::0                     0                       # Read request sizes (log2)
system.mem_ctrls.readPktSize::1                     0                       # Read request sizes (log2)
system.mem_ctrls.readPktSize::2                     0                       # Read request sizes (log2)
system.mem_ctrls.readPktSize::3                     0                       # Read request sizes (log2)
system.mem_ctrls.readPktSize::4                     0                       # Read request sizes (log2)
system.mem_ctrls.readPktSize::5                     0                       # Read request sizes (log2)
system.mem_ctrls.readPktSize::6                     0                       # Read request sizes (log2)
system.mem_ctrls.writePktSize::0                    0                       # Write request sizes (log2)
system.mem_ctrls.writePktSize::1                    0                       # Write request sizes (log2)
system.mem_ctrls.writePktSize::2                    0                       # Write request sizes (log2)
system.mem_ctrls.writePktSize::3                    0                       # Write request sizes (log2)
system.mem_ctrls.writePktSize::4                    0                       # Write request sizes (log2)
system.mem_ctrls.writePktSize::5                    0                       # Write request sizes (log2)
system.mem_ctrls.writePktSize::6                    0                       # Write request sizes (log2)
system.mem_ctrls.rdQLenPdf::0                       0                       # What read queue length does an incoming req see
system.mem_ctrls.rdQLenPdf::1                       0                       # What read queue length does an incoming req see
system.mem_ctrls.rdQLenPdf::2                       0                       # What read queue length does an incoming req see
system.mem_ctrls.rdQLenPdf::3                       0                       # What read queue length does an incoming req see
system.mem_ctrls.rdQLenPdf::4                       0                       # What read queue length does an incoming req see
system.mem_ctrls.rdQLenPdf::5                       0                       # What read queue length does an incoming req see
system.mem_ctrls.rdQLenPdf::6                       0                       # What read queue length does an incoming req see
system.mem_ctrls.rdQLenPdf::7                       0                       # What read queue length does an incoming req see
system.mem_ctrls.rdQLenPdf::8                       0                       # What read queue length does an incoming req see
system.mem_ctrls.rdQLenPdf::9                       0                       # What read queue length does an incoming req see
system.mem_ctrls.rdQLenPdf::10                      0                       # What read queue length does an incoming req see
system.mem_ctrls.rdQLenPdf::11                      0                       # What read queue length does an incoming req see
system.mem_ctrls.rdQLenPdf::12                      0                       # What read queue length does an incoming req see
system.mem_ctrls.rdQLenPdf::13                      0                       # What read queue length does an incoming req see
system.mem_ctrls.rdQLenPdf::14                      0                       # What read queue length does an incoming req see
system.mem_ctrls.rdQLenPdf::15                      0                       # What read queue length does an incoming req see
system.mem_ctrls.rdQLenPdf::16                      0                       # What read queue length does an incoming req see
system.mem_ctrls.rdQLenPdf::17                      0                       # What read queue length does an incoming req see
system.mem_ctrls.rdQLenPdf::18                      0                       # What read queue length does an incoming req see
system.mem_ctrls.rdQLenPdf::19                      0                       # What read queue length does an incoming req see
system.mem_ctrls.rdQLenPdf::20                      0                       # What read queue length does an incoming req see
system.mem_ctrls.rdQLenPdf::21                      0                       # What read queue length does an incoming req see
system.mem_ctrls.rdQLenPdf::22                      0                       # What read queue length does an incoming req see
system.mem_ctrls.rdQLenPdf::23                      0                       # What read queue length does an incoming req see
system.mem_ctrls.rdQLenPdf::24                      0                       # What read queue length does an incoming req see
system.mem_ctrls.rdQLenPdf::25                      0                       # What read queue length does an incoming req see
system.mem_ctrls.rdQLenPdf::26                      0                       # What read queue length does an incoming req see
system.mem_ctrls.rdQLenPdf::27                      0                       # What read queue length does an incoming req see
system.mem_ctrls.rdQLenPdf::28                      0                       # What read queue length does an incoming req see
system.mem_ctrls.rdQLenPdf::29                      0                       # What read queue length does an incoming req see
system.mem_ctrls.rdQLenPdf::30                      0                       # What read queue length does an incoming req see
system.mem_ctrls.rdQLenPdf::31                      0                       # What read queue length does an incoming req see
system.mem_ctrls.rdQLenPdf::32                      0                       # What read queue length does an incoming req see
system.mem_ctrls.rdQLenPdf::33                      0                       # What read queue length does an incoming req see
system.mem_ctrls.rdQLenPdf::34                      0                       # What read queue length does an incoming req see
system.mem_ctrls.rdQLenPdf::35                      0                       # What read queue length does an incoming req see
system.mem_ctrls.rdQLenPdf::36                      0                       # What read queue length does an incoming req see
system.mem_ctrls.rdQLenPdf::37                      0                       # What read queue length does an incoming req see
system.mem_ctrls.rdQLenPdf::38                      0                       # What read queue length does an incoming req see
system.mem_ctrls.rdQLenPdf::39                      0                       # What read queue length does an incoming req see
system.mem_ctrls.rdQLenPdf::40                      0                       # What read queue length does an incoming req see
system.mem_ctrls.rdQLenPdf::41                      0                       # What read queue length does an incoming req see
system.mem_ctrls.rdQLenPdf::42                      0                       # What read queue length does an incoming req see
system.mem_ctrls.rdQLenPdf::43                      0                       # What read queue length does an incoming req see
system.mem_ctrls.rdQLenPdf::44                      0                       # What read queue length does an incoming req see
system.mem_ctrls.rdQLenPdf::45                      0                       # What read queue length does an incoming req see
system.mem_ctrls.rdQLenPdf::46                      0                       # What read queue length does an incoming req see
system.mem_ctrls.rdQLenPdf::47                      0                       # What read queue length does an incoming req see
system.mem_ctrls.rdQLenPdf::48                      0                       # What read queue length does an incoming req see
system.mem_ctrls.rdQLenPdf::49                      0                       # What read queue length does an incoming req see
system.mem_ctrls.rdQLenPdf::50                      0                       # What read queue length does an incoming req see
system.mem_ctrls.rdQLenPdf::51                      0                       # What read queue length does an incoming req see
system.mem_ctrls.rdQLenPdf::52                      0                       # What read queue length does an incoming req see
system.mem_ctrls.rdQLenPdf::53                      0                       # What read queue length does an incoming req see
system.mem_ctrls.rdQLenPdf::54                      0                       # What read queue length does an incoming req see
system.mem_ctrls.rdQLenPdf::55                      0                       # What read queue length does an incoming req see
system.mem_ctrls.rdQLenPdf::56                      0                       # What read queue length does an incoming req see
system.mem_ctrls.rdQLenPdf::57                      0                       # What read queue length does an incoming req see
system.mem_ctrls.rdQLenPdf::58                      0                       # What read queue length does an incoming req see
system.mem_ctrls.rdQLenPdf::59                      0                       # What read queue length does an incoming req see
system.mem_ctrls.rdQLenPdf::60                      0                       # What read queue length does an incoming req see
system.mem_ctrls.rdQLenPdf::61                      0                       # What read queue length does an incoming req see
system.mem_ctrls.rdQLenPdf::62                      0                       # What read queue length does an incoming req see
system.mem_ctrls.rdQLenPdf::63                      0                       # What read queue length does an incoming req see
system.mem_ctrls.wrQLenPdf::0                       0                       # What write queue length does an incoming req see
system.mem_ctrls.wrQLenPdf::1                       0                       # What write queue length does an incoming req see
system.mem_ctrls.wrQLenPdf::2                       0                       # What write queue length does an incoming req see
system.mem_ctrls.wrQLenPdf::3                       0                       # What write queue length does an incoming req see
system.mem_ctrls.wrQLenPdf::4                       0                       # What write queue length does an incoming req see
system.mem_ctrls.wrQLenPdf::5                       0                       # What write queue length does an incoming req see
system.mem_ctrls.wrQLenPdf::6                       0                       # What write queue length does an incoming req see
system.mem_ctrls.wrQLenPdf::7                       0                       # What write queue length does an incoming req see
system.mem_ctrls.wrQLenPdf::8                       0                       # What write queue length does an incoming req see
system.mem_ctrls.wrQLenPdf::9                       0                       # What write queue length does an incoming req see
system.mem_ctrls.wrQLenPdf::10                      0                       # What write queue length does an incoming req see
system.mem_ctrls.wrQLenPdf::11                      0                       # What write queue length does an incoming req see
system.mem_ctrls.wrQLenPdf::12                      0                       # What write queue length does an incoming req see
system.mem_ctrls.wrQLenPdf::13                      0                       # What write queue length does an incoming req see
system.mem_ctrls.wrQLenPdf::14                      0                       # What write queue length does an incoming req see
system.mem_ctrls.wrQLenPdf::15                      0                       # What write queue length does an incoming req see
system.mem_ctrls.wrQLenPdf::16                      0                       # What write queue length does an incoming req see
system.mem_ctrls.wrQLenPdf::17                      0                       # What write queue length does an incoming req see
system.mem_ctrls.wrQLenPdf::18                      0                       # What write queue length does an incoming req see
system.mem_ctrls.wrQLenPdf::19                      0                       # What write queue length does an incoming req see
system.mem_ctrls.wrQLenPdf::20                      0                       # What write queue length does an incoming req see
system.mem_ctrls.wrQLenPdf::21                      0                       # What write queue length does an incoming req see
system.mem_ctrls.wrQLenPdf::22                      0                       # What write queue length does an incoming req see
system.mem_ctrls.wrQLenPdf::23                      0                       # What write queue length does an incoming req see
system.mem_ctrls.wrQLenPdf::24                      0                       # What write queue length does an incoming req see
system.mem_ctrls.wrQLenPdf::25                      0                       # What write queue length does an incoming req see
system.mem_ctrls.wrQLenPdf::26                      0                       # What write queue length does an incoming req see
system.mem_ctrls.wrQLenPdf::27                      0                       # What write queue length does an incoming req see
system.mem_ctrls.wrQLenPdf::28                      0                       # What write queue length does an incoming req see
system.mem_ctrls.wrQLenPdf::29                      0                       # What write queue length does an incoming req see
system.mem_ctrls.wrQLenPdf::30                      0                       # What write queue length does an incoming req see
system.mem_ctrls.wrQLenPdf::31                      0                       # What write queue length does an incoming req see
system.mem_ctrls.wrQLenPdf::32                      0                       # What write queue length does an incoming req see
system.mem_ctrls.wrQLenPdf::33                      0                       # What write queue length does an incoming req see
system.mem_ctrls.wrQLenPdf::34                      0                       # What write queue length does an incoming req see
system.mem_ctrls.wrQLenPdf::35                      0                       # What write queue length does an incoming req see
system.mem_ctrls.wrQLenPdf::36                      0                       # What write queue length does an incoming req see
system.mem_ctrls.wrQLenPdf::37                      0                       # What write queue length does an incoming req see
system.mem_ctrls.wrQLenPdf::38                      0                       # What write queue length does an incoming req see
system.mem_ctrls.wrQLenPdf::39                      0                       # What write queue length does an incoming req see
system.mem_ctrls.wrQLenPdf::40                      0                       # What write queue length does an incoming req see
system.mem_ctrls.wrQLenPdf::41                      0                       # What write queue length does an incoming req see
system.mem_ctrls.wrQLenPdf::42                      0                       # What write queue length does an incoming req see
system.mem_ctrls.wrQLenPdf::43                      0                       # What write queue length does an incoming req see
system.mem_ctrls.wrQLenPdf::44                      0                       # What write queue length does an incoming req see
system.mem_ctrls.wrQLenPdf::45                      0                       # What write queue length does an incoming req see
system.mem_ctrls.wrQLenPdf::46                      0                       # What write queue length does an incoming req see
system.mem_ctrls.wrQLenPdf::47                      0                       # What write queue length does an incoming req see
system.mem_ctrls.wrQLenPdf::48                      0                       # What write queue length does an incoming req see
system.mem_ctrls.wrQLenPdf::49                      0                       # What write queue length does an incoming req see
system.mem_ctrls.wrQLenPdf::50                      0                       # What write queue length does an incoming req see
system.mem_ctrls.wrQLenPdf::51                      0                       # What write queue length does an incoming req see
system.mem_ctrls.wrQLenPdf::52                      0                       # What write queue length does an incoming req see
system.mem_ctrls.wrQLenPdf::53                      0                       # What write queue length does an incoming req see
system.mem_ctrls.wrQLenPdf::54                      0                       # What write queue length does an incoming req see
system.mem_ctrls.wrQLenPdf::55                      0                       # What write queue length does an incoming req see
system.mem_ctrls.wrQLenPdf::56                      0                       # What write queue length does an incoming req see
system.mem_ctrls.wrQLenPdf::57                      0                       # What write queue length does an incoming req see
system.mem_ctrls.wrQLenPdf::58                      0                       # What write queue length does an incoming req see
system.mem_ctrls.wrQLenPdf::59                      0                       # What write queue length does an incoming req see
system.mem_ctrls.wrQLenPdf::60                      0                       # What write queue length does an incoming req see
system.mem_ctrls.wrQLenPdf::61                      0                       # What write queue length does an incoming req see
system.mem_ctrls.wrQLenPdf::62                      0                       # What write queue length does an incoming req see
system.mem_ctrls.wrQLenPdf::63                      0                       # What write queue length does an incoming req see
system.mem_ctrls.wrQLenPdf::64                      0                       # What write queue length does an incoming req see
system.mem_ctrls.wrQLenPdf::65                      0                       # What write queue length does an incoming req see
system.mem_ctrls.wrQLenPdf::66                      0                       # What write queue length does an incoming req see
system.mem_ctrls.wrQLenPdf::67                      0                       # What write queue length does an incoming req see
system.mem_ctrls.wrQLenPdf::68                      0                       # What write queue length does an incoming req see
system.mem_ctrls.wrQLenPdf::69                      0                       # What write queue length does an incoming req see
system.mem_ctrls.wrQLenPdf::70                      0                       # What write queue length does an incoming req see
system.mem_ctrls.wrQLenPdf::71                      0                       # What write queue length does an incoming req see
system.mem_ctrls.wrQLenPdf::72                      0                       # What write queue length does an incoming req see
system.mem_ctrls.wrQLenPdf::73                      0                       # What write queue length does an incoming req see
system.mem_ctrls.wrQLenPdf::74                      0                       # What write queue length does an incoming req see
system.mem_ctrls.wrQLenPdf::75                      0                       # What write queue length does an incoming req see
system.mem_ctrls.wrQLenPdf::76                      0                       # What write queue length does an incoming req see
system.mem_ctrls.wrQLenPdf::77                      0                       # What write queue length does an incoming req see
system.mem_ctrls.wrQLenPdf::78                      0                       # What write queue length does an incoming req see
system.mem_ctrls.wrQLenPdf::79                      0                       # What write queue length does an incoming req see
system.mem_ctrls.wrQLenPdf::80                      0                       # What write queue length does an incoming req see
system.mem_ctrls.wrQLenPdf::81                      0                       # What write queue length does an incoming req see
system.mem_ctrls.wrQLenPdf::82                      0                       # What write queue length does an incoming req see
system.mem_ctrls.wrQLenPdf::83                      0                       # What write queue length does an incoming req see
system.mem_ctrls.wrQLenPdf::84                      0                       # What write queue length does an incoming req see
system.mem_ctrls.wrQLenPdf::85                      0                       # What write queue length does an incoming req see
system.mem_ctrls.wrQLenPdf::86                      0                       # What write queue length does an incoming req see
system.mem_ctrls.wrQLenPdf::87                      0                       # What write queue length does an incoming req see
system.mem_ctrls.wrQLenPdf::88                      0                       # What write queue length does an incoming req see
system.mem_ctrls.wrQLenPdf::89                      0                       # What write queue length does an incoming req see
system.mem_ctrls.wrQLenPdf::90                      0                       # What write queue length does an incoming req see
system.mem_ctrls.wrQLenPdf::91                      0                       # What write queue length does an incoming req see
system.mem_ctrls.wrQLenPdf::92                      0                       # What write queue length does an incoming req see
system.mem_ctrls.wrQLenPdf::93                      0                       # What write queue length does an incoming req see
system.mem_ctrls.wrQLenPdf::94                      0                       # What write queue length does an incoming req see
system.mem_ctrls.wrQLenPdf::95                      0                       # What write queue length does an incoming req see
system.mem_ctrls.wrQLenPdf::96                      0                       # What write queue length does an incoming req see
system.mem_ctrls.wrQLenPdf::97                      0                       # What write queue length does an incoming req see
system.mem_ctrls.wrQLenPdf::98                      0                       # What write queue length does an incoming req see
system.mem_ctrls.wrQLenPdf::99                      0                       # What write queue length does an incoming req see
system.mem_ctrls.wrQLenPdf::100                     0                       # What write queue length does an incoming req see
system.mem_ctrls.wrQLenPdf::101                     0                       # What write queue length does an incoming req see
system.mem_ctrls.wrQLenPdf::102                     0                       # What write queue length does an incoming req see
system.mem_ctrls.wrQLenPdf::103                     0                       # What write queue length does an incoming req see
system.mem_ctrls.wrQLenPdf::104                     0                       # What write queue length does an incoming req see
system.mem_ctrls.wrQLenPdf::105                     0                       # What write queue length does an incoming req see
system.mem_ctrls.wrQLenPdf::106                     0                       # What write queue length does an incoming req see
system.mem_ctrls.wrQLenPdf::107                     0                       # What write queue length does an incoming req see
system.mem_ctrls.wrQLenPdf::108                     0                       # What write queue length does an incoming req see
system.mem_ctrls.wrQLenPdf::109                     0                       # What write queue length does an incoming req see
system.mem_ctrls.wrQLenPdf::110                     0                       # What write queue length does an incoming req see
system.mem_ctrls.wrQLenPdf::111                     0                       # What write queue length does an incoming req see
system.mem_ctrls.wrQLenPdf::112                     0                       # What write queue length does an incoming req see
system.mem_ctrls.wrQLenPdf::113                     0                       # What write queue length does an incoming req see
system.mem_ctrls.wrQLenPdf::114                     0                       # What write queue length does an incoming req see
system.mem_ctrls.wrQLenPdf::115                     0                       # What write queue length does an incoming req see
system.mem_ctrls.wrQLenPdf::116                     0                       # What write queue length does an incoming req see
system.mem_ctrls.wrQLenPdf::117                     0                       # What write queue length does an incoming req see
system.mem_ctrls.wrQLenPdf::118                     0                       # What write queue length does an incoming req see
system.mem_ctrls.wrQLenPdf::119                     0                       # What write queue length does an incoming req see
system.mem_ctrls.wrQLenPdf::120                     0                       # What write queue length does an incoming req see
system.mem_ctrls.wrQLenPdf::121                     0                       # What write queue length does an incoming req see
system.mem_ctrls.wrQLenPdf::122                     0                       # What write queue length does an incoming req see
system.mem_ctrls.wrQLenPdf::123                     0                       # What write queue length does an incoming req see
system.mem_ctrls.wrQLenPdf::124                     0                       # What write queue length does an incoming req see
system.mem_ctrls.wrQLenPdf::125                     0                       # What write queue length does an incoming req see
system.mem_ctrls.wrQLenPdf::126                     0                       # What write queue length does an incoming req see
system.mem_ctrls.wrQLenPdf::127                     0                       # What write queue length does an incoming req see
system.mem_ctrls.totQLat                            0                       # Total ticks spent queuing
system.mem_ctrls.totMemAccLat                       0                       # Total ticks spent from burst creation until serviced by the DRAM
system.mem_ctrls.totBusLat                          0                       # Total ticks spent in databus transfers
system.mem_ctrls.avgQLat                          nan                       # Average queueing delay per DRAM burst
system.mem_ctrls.avgBusLat                        nan                       # Average bus latency per DRAM burst
system.mem_ctrls.avgMemAccLat                     nan                       # Average memory access latency per DRAM burst
system.mem_ctrls.avgRdBW                         0.00                       # Average DRAM read bandwidth in MiByte/s
system.mem_ctrls.avgWrBW                         0.00                       # Average achieved write bandwidth in MiByte/s
system.mem_ctrls.avgRdBWSys                      0.00                       # Average system read bandwidth in MiByte/s
system.mem_ctrls.avgWrBWSys                      0.00                       # Average system write bandwidth in MiByte/s
system.mem_ctrls.peakBW                      19207.00                       # Theoretical peak bandwidth in MiByte/s
system.mem_ctrls.busUtil                         0.00                       # Data bus utilization in percentage
system.mem_ctrls.busUtilRead                     0.00                       # Data bus utilization in percentage for reads
system.mem_ctrls.busUtilWrite                    0.00                       # Data bus utilization in percentage for writes
system.mem_ctrls.avgRdQLen                       0.00                       # Average read queue length when enqueuing
system.mem_ctrls.avgWrQLen                       0.00                       # Average write queue length when enqueuing
system.mem_ctrls.readRowHits                        0                       # Number of row buffer hits during reads
system.mem_ctrls.writeRowHits                       0                       # Number of row buffer hits during writes
system.mem_ctrls.readRowHitRate                   nan                       # Row buffer hit rate for reads
system.mem_ctrls.writeRowHitRate                  nan                       # Row buffer hit rate for writes
system.mem_ctrls.avgGap                           nan                       # Average gap between requests
system.mem_ctrls.pageHitRate                      nan                       # Row buffer hit rate, read and write combined
system.mem_ctrls_0.actEnergy                        0                       # Energy for activate commands per rank (pJ)
system.mem_ctrls_0.preEnergy                        0                       # Energy for precharge commands per rank (pJ)
system.mem_ctrls_0.readEnergy                       0                       # Energy for read commands per rank (pJ)
system.mem_ctrls_0.writeEnergy                      0                       # Energy for write commands per rank (pJ)
system.mem_ctrls_0.refreshEnergy                    0                       # Energy for refresh commands per rank (pJ)
system.mem_ctrls_0.actBackEnergy                    0                       # Energy for active background per rank (pJ)
system.mem_ctrls_0.preBackEnergy         2428879133244962                       # Energy for precharge background per rank (pJ)
system.mem_ctrls_0.actPowerDownEnergy               0                       # Energy for active power-down per rank (pJ)
system.mem_ctrls_0.prePowerDownEnergy               0                       # Energy for precharge power-down per rank (pJ)
system.mem_ctrls_0.selfRefreshEnergy                0                       # Energy for self refresh per rank (pJ)
system.mem_ctrls_0.totalEnergy           2428879133244962                       # Total energy per rank (pJ)
system.mem_ctrls_0.averagePower            163.200000                       # Core power per rank (mW)
system.mem_ctrls_0.totalIdleTime                    0                       # Total Idle time Per DRAM Rank
system.mem_ctrls_0.memoryStateTime::IDLE 21629960881037000                       # Time in different power states
system.mem_ctrls_0.memoryStateTime::REF             0                       # Time in different power states
system.mem_ctrls_0.memoryStateTime::SREF            0                       # Time in different power states
system.mem_ctrls_0.memoryStateTime::PRE_PDN            0                       # Time in different power states
system.mem_ctrls_0.memoryStateTime::ACT             0                       # Time in different power states
system.mem_ctrls_0.memoryStateTime::ACT_PDN            0                       # Time in different power states
system.mem_ctrls_1.actEnergy                        0                       # Energy for activate commands per rank (pJ)
system.mem_ctrls_1.preEnergy                        0                       # Energy for precharge commands per rank (pJ)
system.mem_ctrls_1.readEnergy                       0                       # Energy for read commands per rank (pJ)
system.mem_ctrls_1.writeEnergy                      0                       # Energy for write commands per rank (pJ)
system.mem_ctrls_1.refreshEnergy                    0                       # Energy for refresh commands per rank (pJ)
system.mem_ctrls_1.actBackEnergy                    0                       # Energy for active background per rank (pJ)
[...]
system.tol2bus12.pkt_size_system.cpu12.itb.walker.dma::system.l212.cpu_side       417616                       # Cumulative packet size per connected master and slave (bytes)
system.tol2bus12.pkt_size_system.cpu12.dtb.walker.dma::system.l212.cpu_side       513408                       # Cumulative packet size per connected master and slave (bytes)
system.tol2bus12.pkt_size::total             54791940                       # Cumulative packet size per connected master and slave (bytes)
system.tol2bus12.snoops                        894906                       # Total snoops (count)
system.tol2bus12.snoopTraffic                 2076096                       # Total snoop traffic (bytes)
system.tol2bus12.snoop_fanout::samples        1531619                       # Request fanout histogram
system.tol2bus12.snoop_fanout::mean          0.094536                       # Request fanout histogram
system.tol2bus12.snoop_fanout::stdev         0.292573                       # Request fanout histogram
system.tol2bus12.snoop_fanout::underflows            0      0.00%      0.00% # Request fanout histogram
system.tol2bus12.snoop_fanout::0              1386826     90.55%     90.55% # Request fanout histogram
system.tol2bus12.snoop_fanout::1               144793      9.45%    100.00% # Request fanout histogram
system.tol2bus12.snoop_fanout::2                    0      0.00%    100.00% # Request fanout histogram
system.tol2bus12.snoop_fanout::overflows            0      0.00%    100.00% # Request fanout histogram
system.tol2bus12.snoop_fanout::min_value            0                       # Request fanout histogram
system.tol2bus12.snoop_fanout::max_value            1                       # Request fanout histogram
system.tol2bus12.snoop_fanout::total          1531619                       # Request fanout histogram
system.tol2bus12.directResponses                    0                       # auxiliar stat for checking how reasonable wireless model is
system.tol2bus13.snoop_filter.tot_requests      6124594                       # Total number of requests made to the snoop filter.
system.tol2bus13.snoop_filter.hit_single_requests      3077954                       # Number of requests hitting in the snoop filter with a single holder of the requested data.
system.tol2bus13.snoop_filter.hit_multi_requests           28                       # Number of requests hitting in the snoop filter with multiple (>1) holders of the requested data.
system.tol2bus13.snoop_filter.tot_snoops       224456                       # Total number of snoops made to the snoop filter.
system.tol2bus13.snoop_filter.hit_single_snoops       224454                       # Number of snoops hitting in the snoop filter with a single holder of the requested data.
system.tol2bus13.snoop_filter.hit_multi_snoops            2                       # Number of snoops hitting in the snoop filter with multiple (>1) holders of the requested data.
system.tol2bus13.pwrStateResidencyTicks::UNDEFINED 21629960881037000                       # Cumulative time (in ticks) in various power states
system.tol2bus13.trans_dist::ReadReq          1061800                       # Transaction distribution
system.tol2bus13.trans_dist::ReadResp         3933485                       # Transaction distribution
system.tol2bus13.trans_dist::WriteReq            2079                       # Transaction distribution
system.tol2bus13.trans_dist::WriteResp           2079                       # Transaction distribution
system.tol2bus13.trans_dist::WritebackDirty       365228                       # Transaction distribution
system.tol2bus13.trans_dist::WritebackClean      2191495                       # Transaction distribution
system.tol2bus13.trans_dist::CleanEvict        457760                       # Transaction distribution
system.tol2bus13.trans_dist::UpgradeReq         24668                       # Transaction distribution
system.tol2bus13.trans_dist::SCUpgradeReq        23075                       # Transaction distribution
system.tol2bus13.trans_dist::UpgradeResp        47743                       # Transaction distribution
system.tol2bus13.trans_dist::ReadExReq         125835                       # Transaction distribution
system.tol2bus13.trans_dist::ReadExResp        125835                       # Transaction distribution
system.tol2bus13.trans_dist::ReadCleanReq      2192007                       # Transaction distribution
system.tol2bus13.trans_dist::ReadSharedReq       679678                       # Transaction distribution
system.tol2bus13.trans_dist::InvalidateReq        49182                       # Transaction distribution
system.tol2bus13.trans_dist::InvalidateResp        49182                       # Transaction distribution
system.tol2bus13.pkt_count_system.cpu13.icache.mem_side::system.l213.cpu_side      6575509                       # Packet count per connected master and slave (bytes)
system.tol2bus13.pkt_count_system.cpu13.dcache.mem_side::system.l213.cpu_side      2640688                       # Packet count per connected master and slave (bytes)
system.tol2bus13.pkt_count_system.cpu13.itb.walker.dma::system.l213.cpu_side      1372650                       # Packet count per connected master and slave (bytes)
system.tol2bus13.pkt_count_system.cpu13.dtb.walker.dma::system.l213.cpu_side       742284                       # Packet count per connected master and slave (bytes)
system.tol2bus13.pkt_count::total            11331131                       # Packet count per connected master and slave (bytes)
system.tol2bus13.pkt_size_system.cpu13.icache.mem_side::system.l213.cpu_side    280544128                       # Cumulative packet size per connected master and slave (bytes)
system.tol2bus13.pkt_size_system.cpu13.dcache.mem_side::system.l213.cpu_side     74953072                       # Cumulative packet size per connected master and slave (bytes)
system.tol2bus13.pkt_size_system.cpu13.itb.walker.dma::system.l213.cpu_side      5490600                       # Cumulative packet size per connected master and slave (bytes)
system.tol2bus13.pkt_size_system.cpu13.dtb.walker.dma::system.l213.cpu_side      2969136                       # Cumulative packet size per connected master and slave (bytes)
system.tol2bus13.pkt_size::total            363956936                       # Cumulative packet size per connected master and slave (bytes)
system.tol2bus13.snoops                       1319494                       # Total snoops (count)
system.tol2bus13.snoopTraffic                 1650240                       # Total snoop traffic (bytes)
system.tol2bus13.snoop_fanout::samples        5423159                       # Request fanout histogram
system.tol2bus13.snoop_fanout::mean          0.044283                       # Request fanout histogram
system.tol2bus13.snoop_fanout::stdev         0.205724                       # Request fanout histogram
system.tol2bus13.snoop_fanout::underflows            0      0.00%      0.00% # Request fanout histogram
system.tol2bus13.snoop_fanout::0              5183009     95.57%     95.57% # Request fanout histogram
system.tol2bus13.snoop_fanout::1               240148      4.43%    100.00% # Request fanout histogram
system.tol2bus13.snoop_fanout::2                    2      0.00%    100.00% # Request fanout histogram
system.tol2bus13.snoop_fanout::overflows            0      0.00%    100.00% # Request fanout histogram
system.tol2bus13.snoop_fanout::min_value            0                       # Request fanout histogram
system.tol2bus13.snoop_fanout::max_value            2                       # Request fanout histogram
system.tol2bus13.snoop_fanout::total          5423159                       # Request fanout histogram
system.tol2bus13.directResponses                    0                       # auxiliar stat for checking how reasonable wireless model is
system.tol2bus14.snoop_filter.tot_requests     88170380                       # Total number of requests made to the snoop filter.
system.tol2bus14.snoop_filter.hit_single_requests     44106932                       # Number of requests hitting in the snoop filter with a single holder of the requested data.
system.tol2bus14.snoop_filter.hit_multi_requests           14                       # Number of requests hitting in the snoop filter with multiple (>1) holders of the requested data.
system.tol2bus14.snoop_filter.tot_snoops       737348                       # Total number of snoops made to the snoop filter.
system.tol2bus14.snoop_filter.hit_single_snoops       737348                       # Number of snoops hitting in the snoop filter with a single holder of the requested data.
system.tol2bus14.snoop_filter.hit_multi_snoops            0                       # Number of snoops hitting in the snoop filter with multiple (>1) holders of the requested data.
system.tol2bus14.pwrStateResidencyTicks::UNDEFINED 21629960881037000                       # Cumulative time (in ticks) in various power states
system.tol2bus14.trans_dist::ReadReq         12162414                       # Transaction distribution
system.tol2bus14.trans_dist::ReadResp        54069792                       # Transaction distribution
system.tol2bus14.trans_dist::WriteReq            8568                       # Transaction distribution
system.tol2bus14.trans_dist::WriteResp           8568                       # Transaction distribution
system.tol2bus14.trans_dist::WritebackDirty      5031039                       # Transaction distribution
system.tol2bus14.trans_dist::WritebackClean     34368945                       # Transaction distribution
system.tol2bus14.trans_dist::CleanEvict       4525009                       # Transaction distribution
system.tol2bus14.trans_dist::UpgradeReq         94415                       # Transaction distribution
system.tol2bus14.trans_dist::SCUpgradeReq        70841                       # Transaction distribution
system.tol2bus14.trans_dist::UpgradeResp       165256                       # Transaction distribution
system.tol2bus14.trans_dist::ReadExReq        1651120                       # Transaction distribution
system.tol2bus14.trans_dist::ReadExResp       1651120                       # Transaction distribution
system.tol2bus14.trans_dist::ReadCleanReq     34369457                       # Transaction distribution
system.tol2bus14.trans_dist::ReadSharedReq      7537921                       # Transaction distribution
system.tol2bus14.trans_dist::InvalidateReq       507764                       # Transaction distribution
system.tol2bus14.trans_dist::InvalidateResp       507764                       # Transaction distribution
system.tol2bus14.pkt_count_system.cpu14.icache.mem_side::system.l214.cpu_side    103107859                       # Packet count per connected master and slave (bytes)
system.tol2bus14.pkt_count_system.cpu14.dcache.mem_side::system.l214.cpu_side     29311004                       # Packet count per connected master and slave (bytes)
system.tol2bus14.pkt_count_system.cpu14.itb.walker.dma::system.l214.cpu_side     20862718                       # Packet count per connected master and slave (bytes)
system.tol2bus14.pkt_count_system.cpu14.dtb.walker.dma::system.l214.cpu_side      3448412                       # Packet count per connected master and slave (bytes)
system.tol2bus14.pkt_count::total           156729993                       # Packet count per connected master and slave (bytes)
system.tol2bus14.pkt_size_system.cpu14.icache.mem_side::system.l214.cpu_side   4399257728                       # Cumulative packet size per connected master and slave (bytes)
system.tol2bus14.pkt_size_system.cpu14.dcache.mem_side::system.l214.cpu_side    910146788                       # Cumulative packet size per connected master and slave (bytes)
system.tol2bus14.pkt_size_system.cpu14.itb.walker.dma::system.l214.cpu_side     83450872                       # Cumulative packet size per connected master and slave (bytes)
system.tol2bus14.pkt_size_system.cpu14.dtb.walker.dma::system.l214.cpu_side     13793648                       # Cumulative packet size per connected master and slave (bytes)
system.tol2bus14.pkt_size::total           5406649036                       # Cumulative packet size per connected master and slave (bytes)
system.tol2bus14.snoops                       2936446                       # Total snoops (count)
system.tol2bus14.snoopTraffic                23028608                       # Total snoop traffic (bytes)
system.tol2bus14.snoop_fanout::samples       59088210                       # Request fanout histogram
system.tol2bus14.snoop_fanout::mean          0.012714                       # Request fanout histogram
system.tol2bus14.snoop_fanout::stdev         0.112036                       # Request fanout histogram
system.tol2bus14.snoop_fanout::underflows            0      0.00%      0.00% # Request fanout histogram
system.tol2bus14.snoop_fanout::0             58336979     98.73%     98.73% # Request fanout histogram
system.tol2bus14.snoop_fanout::1               751231      1.27%    100.00% # Request fanout histogram
system.tol2bus14.snoop_fanout::2                    0      0.00%    100.00% # Request fanout histogram
system.tol2bus14.snoop_fanout::overflows            0      0.00%    100.00% # Request fanout histogram
system.tol2bus14.snoop_fanout::min_value            0                       # Request fanout histogram
system.tol2bus14.snoop_fanout::max_value            1                       # Request fanout histogram
system.tol2bus14.snoop_fanout::total         59088210                       # Request fanout histogram
system.tol2bus14.directResponses                    0                       # auxiliar stat for checking how reasonable wireless model is
system.tol2bus15.snoop_filter.tot_requests     22167343                       # Total number of requests made to the snoop filter.
system.tol2bus15.snoop_filter.hit_single_requests     11117841                       # Number of requests hitting in the snoop filter with a single holder of the requested data.
system.tol2bus15.snoop_filter.hit_multi_requests         2405                       # Number of requests hitting in the snoop filter with multiple (>1) holders of the requested data.
system.tol2bus15.snoop_filter.tot_snoops       347869                       # Total number of snoops made to the snoop filter.
system.tol2bus15.snoop_filter.hit_single_snoops       347849                       # Number of snoops hitting in the snoop filter with a single holder of the requested data.
system.tol2bus15.snoop_filter.hit_multi_snoops           20                       # Number of snoops hitting in the snoop filter with multiple (>1) holders of the requested data.
system.tol2bus15.pwrStateResidencyTicks::UNDEFINED 21629960881037000                       # Cumulative time (in ticks) in various power states
system.tol2bus15.trans_dist::ReadReq          9335917                       # Transaction distribution
system.tol2bus15.trans_dist::ReadResp        19417011                       # Transaction distribution
system.tol2bus15.trans_dist::WriteReq            6926                       # Transaction distribution
system.tol2bus15.trans_dist::WriteResp           6926                       # Transaction distribution
system.tol2bus15.trans_dist::WritebackDirty      1585714                       # Transaction distribution
system.tol2bus15.trans_dist::WritebackClean      4687102                       # Transaction distribution
system.tol2bus15.trans_dist::CleanEvict       4712691                       # Transaction distribution
system.tol2bus15.trans_dist::UpgradeReq         44725                       # Transaction distribution
system.tol2bus15.trans_dist::SCUpgradeReq        41675                       # Transaction distribution
system.tol2bus15.trans_dist::UpgradeResp        86400                       # Transaction distribution
system.tol2bus15.trans_dist::ReadExReq         715977                       # Transaction distribution
system.tol2bus15.trans_dist::ReadExResp        715977                       # Transaction distribution
system.tol2bus15.trans_dist::ReadCleanReq      4687614                       # Transaction distribution
system.tol2bus15.trans_dist::ReadSharedReq      5393480                       # Transaction distribution
system.tol2bus15.trans_dist::CleanSharedReq         2688                       # Transaction distribution
system.tol2bus15.trans_dist::CleanSharedResp         2688                       # Transaction distribution
system.tol2bus15.trans_dist::InvalidateReq       249877                       # Transaction distribution
system.tol2bus15.trans_dist::InvalidateResp       249877                       # Transaction distribution
system.tol2bus15.pkt_count_system.cpu15.icache.mem_side::system.l215.cpu_side     14062330                       # Packet count per connected master and slave (bytes)
system.tol2bus15.pkt_count_system.cpu15.dcache.mem_side::system.l215.cpu_side     19229117                       # Packet count per connected master and slave (bytes)
system.tol2bus15.pkt_count_system.cpu15.itb.walker.dma::system.l215.cpu_side      2717064                       # Packet count per connected master and slave (bytes)
system.tol2bus15.pkt_count_system.cpu15.dtb.walker.dma::system.l215.cpu_side     15934754                       # Packet count per connected master and slave (bytes)
system.tol2bus15.pkt_count::total            51943265                       # Packet count per connected master and slave (bytes)
system.tol2bus15.pkt_size_system.cpu15.icache.mem_side::system.l215.cpu_side    599981824                       # Cumulative packet size per connected master and slave (bytes)
system.tol2bus15.pkt_size_system.cpu15.dcache.mem_side::system.l215.cpu_side    492544604                       # Cumulative packet size per connected master and slave (bytes)
system.tol2bus15.pkt_size_system.cpu15.itb.walker.dma::system.l215.cpu_side     10868256                       # Cumulative packet size per connected master and slave (bytes)
system.tol2bus15.pkt_size_system.cpu15.dtb.walker.dma::system.l215.cpu_side     63739016                       # Cumulative packet size per connected master and slave (bytes)
system.tol2bus15.pkt_size::total           1167133700                       # Cumulative packet size per connected master and slave (bytes)
system.tol2bus15.snoops                       4827385                       # Total snoops (count)
system.tol2bus15.snoopTraffic                42002624                       # Total snoop traffic (bytes)
system.tol2bus15.snoop_fanout::samples       25200265                       # Request fanout histogram
system.tol2bus15.snoop_fanout::mean          0.015718                       # Request fanout histogram
system.tol2bus15.snoop_fanout::stdev         0.124388                       # Request fanout histogram
system.tol2bus15.snoop_fanout::underflows            0      0.00%      0.00% # Request fanout histogram
system.tol2bus15.snoop_fanout::0             24804191     98.43%     98.43% # Request fanout histogram
system.tol2bus15.snoop_fanout::1               396054      1.57%    100.00% # Request fanout histogram
system.tol2bus15.snoop_fanout::2                   20      0.00%    100.00% # Request fanout histogram
system.tol2bus15.snoop_fanout::overflows            0      0.00%    100.00% # Request fanout histogram
system.tol2bus15.snoop_fanout::min_value            0                       # Request fanout histogram
system.tol2bus15.snoop_fanout::max_value            2                       # Request fanout histogram
system.tol2bus15.snoop_fanout::total         25200265                       # Request fanout histogram
system.tol2bus15.directResponses                    0                       # auxiliar stat for checking how reasonable wireless model is

---------- End Simulation Statistics   ----------
