
---------- Begin Simulation Statistics ----------
sim_seconds                               4386.201336                       # Number of seconds simulated
sim_ticks                                4386201336479500                       # Number of ticks simulated
final_tick                               11133324391260500                       # Number of ticks from beginning of simulation (restored from checkpoints and never reset)
sim_freq                                 1000000000000                       # Frequency of simulated ticks
host_inst_rate                                2240024                       # Simulator instruction rate (inst/s)
host_op_rate                                  2515150                       # Simulator op (including micro ops) rate (op/s)
host_tick_rate                           730156723487                       # Simulator tick rate (ticks/s)
host_mem_usage                                4924304                       # Number of bytes of host memory used
host_seconds                                  6007.21                       # Real time elapsed on the host
sim_insts                                 13456283917                       # Number of instructions simulated
sim_ops                                   15109023480                       # Number of ops (including micro ops) simulated
system.voltage_domain.voltage                       1                       # Voltage in Volts
system.clk_domain.clock                           625                       # Clock period in ticks
system.bootmem.pwrStateResidencyTicks::UNDEFINED 11133324391260500                       # Cumulative time (in ticks) in various power states
system.mem_ctrls.pwrStateResidencyTicks::UNDEFINED 11133324391260500                       # Cumulative time (in ticks) in various power states
system.mem_ctrls.bytes_read::cpu00.dtb.walker       193280                       # Number of bytes read from this memory
system.mem_ctrls.bytes_read::cpu00.itb.walker        70848                       # Number of bytes read from this memory
system.mem_ctrls.bytes_read::cpu00.inst       4331456                       # Number of bytes read from this memory
system.mem_ctrls.bytes_read::cpu00.data      88624192                       # Number of bytes read from this memory
system.mem_ctrls.bytes_read::cpu01.dtb.walker        95360                       # Number of bytes read from this memory
system.mem_ctrls.bytes_read::cpu01.itb.walker        15104                       # Number of bytes read from this memory
system.mem_ctrls.bytes_read::cpu01.inst       1284864                       # Number of bytes read from this memory
system.mem_ctrls.bytes_read::cpu01.data      12946880                       # Number of bytes read from this memory
system.mem_ctrls.bytes_read::cpu02.dtb.walker       169664                       # Number of bytes read from this memory
system.mem_ctrls.bytes_read::cpu02.itb.walker        47744                       # Number of bytes read from this memory
system.mem_ctrls.bytes_read::cpu02.inst       2228736                       # Number of bytes read from this memory
system.mem_ctrls.bytes_read::cpu02.data      14886592                       # Number of bytes read from this memory
system.mem_ctrls.bytes_read::cpu03.dtb.walker       160896                       # Number of bytes read from this memory
system.mem_ctrls.bytes_read::cpu03.itb.walker        46784                       # Number of bytes read from this memory
system.mem_ctrls.bytes_read::cpu03.inst       3419392                       # Number of bytes read from this memory
system.mem_ctrls.bytes_read::cpu03.data      19029504                       # Number of bytes read from this memory
system.mem_ctrls.bytes_read::cpu04.dtb.walker       245696                       # Number of bytes read from this memory
system.mem_ctrls.bytes_read::cpu04.itb.walker        60032                       # Number of bytes read from this memory
system.mem_ctrls.bytes_read::cpu04.inst       4608448                       # Number of bytes read from this memory
system.mem_ctrls.bytes_read::cpu04.data      17986816                       # Number of bytes read from this memory
system.mem_ctrls.bytes_read::cpu05.dtb.walker       160256                       # Number of bytes read from this memory
system.mem_ctrls.bytes_read::cpu05.itb.walker        35264                       # Number of bytes read from this memory
system.mem_ctrls.bytes_read::cpu05.inst       2551936                       # Number of bytes read from this memory
system.mem_ctrls.bytes_read::cpu05.data      15854208                       # Number of bytes read from this memory
system.mem_ctrls.bytes_read::cpu06.dtb.walker       159744                       # Number of bytes read from this memory
system.mem_ctrls.bytes_read::cpu06.itb.walker        42240                       # Number of bytes read from this memory
system.mem_ctrls.bytes_read::cpu06.inst       2123072                       # Number of bytes read from this memory
system.mem_ctrls.bytes_read::cpu06.data      16269568                       # Number of bytes read from this memory
system.mem_ctrls.bytes_read::cpu07.dtb.walker       124352                       # Number of bytes read from this memory
system.mem_ctrls.bytes_read::cpu07.itb.walker        32320                       # Number of bytes read from this memory
system.mem_ctrls.bytes_read::cpu07.inst       1690304                       # Number of bytes read from this memory
system.mem_ctrls.bytes_read::cpu07.data      15884928                       # Number of bytes read from this memory
system.mem_ctrls.bytes_read::cpu08.dtb.walker       162688                       # Number of bytes read from this memory
system.mem_ctrls.bytes_read::cpu08.itb.walker        62080                       # Number of bytes read from this memory
system.mem_ctrls.bytes_read::cpu08.inst       3448448                       # Number of bytes read from this memory
system.mem_ctrls.bytes_read::cpu08.data      22132032                       # Number of bytes read from this memory
system.mem_ctrls.bytes_read::cpu09.dtb.walker        81216                       # Number of bytes read from this memory
system.mem_ctrls.bytes_read::cpu09.itb.walker        23680                       # Number of bytes read from this memory
system.mem_ctrls.bytes_read::cpu09.inst       1374464                       # Number of bytes read from this memory
system.mem_ctrls.bytes_read::cpu09.data      16101888                       # Number of bytes read from this memory
system.mem_ctrls.bytes_read::cpu10.dtb.walker       132096                       # Number of bytes read from this memory
system.mem_ctrls.bytes_read::cpu10.itb.walker        29952                       # Number of bytes read from this memory
system.mem_ctrls.bytes_read::cpu10.inst       1683584                       # Number of bytes read from this memory
system.mem_ctrls.bytes_read::cpu10.data      18524160                       # Number of bytes read from this memory
system.mem_ctrls.bytes_read::cpu11.dtb.walker       130176                       # Number of bytes read from this memory
system.mem_ctrls.bytes_read::cpu11.itb.walker        39680                       # Number of bytes read from this memory
system.mem_ctrls.bytes_read::cpu11.inst       1952896                       # Number of bytes read from this memory
system.mem_ctrls.bytes_read::cpu11.data      19547328                       # Number of bytes read from this memory
system.mem_ctrls.bytes_read::cpu12.dtb.walker      3450752                       # Number of bytes read from this memory
system.mem_ctrls.bytes_read::cpu12.itb.walker        75136                       # Number of bytes read from this memory
system.mem_ctrls.bytes_read::cpu12.inst       5103808                       # Number of bytes read from this memory
system.mem_ctrls.bytes_read::cpu12.data     184357312                       # Number of bytes read from this memory
system.mem_ctrls.bytes_read::cpu13.dtb.walker       231296                       # Number of bytes read from this memory
system.mem_ctrls.bytes_read::cpu13.itb.walker       207296                       # Number of bytes read from this memory
system.mem_ctrls.bytes_read::cpu13.inst       5353600                       # Number of bytes read from this memory
system.mem_ctrls.bytes_read::cpu13.data      17155136                       # Number of bytes read from this memory
system.mem_ctrls.bytes_read::cpu14.dtb.walker      1295104                       # Number of bytes read from this memory
system.mem_ctrls.bytes_read::cpu14.itb.walker       878272                       # Number of bytes read from this memory
system.mem_ctrls.bytes_read::cpu14.inst      19283776                       # Number of bytes read from this memory
system.mem_ctrls.bytes_read::cpu14.data      33669696                       # Number of bytes read from this memory
system.mem_ctrls.bytes_read::cpu15.dtb.walker       239360                       # Number of bytes read from this memory
system.mem_ctrls.bytes_read::cpu15.itb.walker       135424                       # Number of bytes read from this memory
system.mem_ctrls.bytes_read::cpu15.inst       3856384                       # Number of bytes read from this memory
system.mem_ctrls.bytes_read::cpu15.data      14877120                       # Number of bytes read from this memory
system.mem_ctrls.bytes_read::pci_ide               64                       # Number of bytes read from this memory
system.mem_ctrls.bytes_read::total          600976384                       # Number of bytes read from this memory
system.mem_ctrls.bytes_inst_read::cpu00.inst      4331456                       # Number of instructions bytes read from this memory
system.mem_ctrls.bytes_inst_read::cpu01.inst      1284864                       # Number of instructions bytes read from this memory
system.mem_ctrls.bytes_inst_read::cpu02.inst      2228736                       # Number of instructions bytes read from this memory
system.mem_ctrls.bytes_inst_read::cpu03.inst      3419392                       # Number of instructions bytes read from this memory
system.mem_ctrls.bytes_inst_read::cpu04.inst      4608448                       # Number of instructions bytes read from this memory
system.mem_ctrls.bytes_inst_read::cpu05.inst      2551936                       # Number of instructions bytes read from this memory
system.mem_ctrls.bytes_inst_read::cpu06.inst      2123072                       # Number of instructions bytes read from this memory
system.mem_ctrls.bytes_inst_read::cpu07.inst      1690304                       # Number of instructions bytes read from this memory
system.mem_ctrls.bytes_inst_read::cpu08.inst      3448448                       # Number of instructions bytes read from this memory
system.mem_ctrls.bytes_inst_read::cpu09.inst      1374464                       # Number of instructions bytes read from this memory
system.mem_ctrls.bytes_inst_read::cpu10.inst      1683584                       # Number of instructions bytes read from this memory
system.mem_ctrls.bytes_inst_read::cpu11.inst      1952896                       # Number of instructions bytes read from this memory
system.mem_ctrls.bytes_inst_read::cpu12.inst      5103808                       # Number of instructions bytes read from this memory
system.mem_ctrls.bytes_inst_read::cpu13.inst      5353600                       # Number of instructions bytes read from this memory
system.mem_ctrls.bytes_inst_read::cpu14.inst     19283776                       # Number of instructions bytes read from this memory
system.mem_ctrls.bytes_inst_read::cpu15.inst      3856384                       # Number of instructions bytes read from this memory
system.mem_ctrls.bytes_inst_read::total      64295168                       # Number of instructions bytes read from this memory
system.mem_ctrls.bytes_written::writebacks    295471936                       # Number of bytes written to this memory
system.mem_ctrls.bytes_written::total       295471936                       # Number of bytes written to this memory
system.mem_ctrls.num_reads::cpu00.dtb.walker         3020                       # Number of read requests responded to by this memory
system.mem_ctrls.num_reads::cpu00.itb.walker         1107                       # Number of read requests responded to by this memory
system.mem_ctrls.num_reads::cpu00.inst          67679                       # Number of read requests responded to by this memory
system.mem_ctrls.num_reads::cpu00.data        1384753                       # Number of read requests responded to by this memory
system.mem_ctrls.num_reads::cpu01.dtb.walker         1490                       # Number of read requests responded to by this memory
system.mem_ctrls.num_reads::cpu01.itb.walker          236                       # Number of read requests responded to by this memory
system.mem_ctrls.num_reads::cpu01.inst          20076                       # Number of read requests responded to by this memory
system.mem_ctrls.num_reads::cpu01.data         202295                       # Number of read requests responded to by this memory
system.mem_ctrls.num_reads::cpu02.dtb.walker         2651                       # Number of read requests responded to by this memory
system.mem_ctrls.num_reads::cpu02.itb.walker          746                       # Number of read requests responded to by this memory
system.mem_ctrls.num_reads::cpu02.inst          34824                       # Number of read requests responded to by this memory
system.mem_ctrls.num_reads::cpu02.data         232603                       # Number of read requests responded to by this memory
system.mem_ctrls.num_reads::cpu03.dtb.walker         2514                       # Number of read requests responded to by this memory
system.mem_ctrls.num_reads::cpu03.itb.walker          731                       # Number of read requests responded to by this memory
system.mem_ctrls.num_reads::cpu03.inst          53428                       # Number of read requests responded to by this memory
system.mem_ctrls.num_reads::cpu03.data         297336                       # Number of read requests responded to by this memory
system.mem_ctrls.num_reads::cpu04.dtb.walker         3839                       # Number of read requests responded to by this memory
system.mem_ctrls.num_reads::cpu04.itb.walker          938                       # Number of read requests responded to by this memory
system.mem_ctrls.num_reads::cpu04.inst          72007                       # Number of read requests responded to by this memory
system.mem_ctrls.num_reads::cpu04.data         281044                       # Number of read requests responded to by this memory
system.mem_ctrls.num_reads::cpu05.dtb.walker         2504                       # Number of read requests responded to by this memory
system.mem_ctrls.num_reads::cpu05.itb.walker          551                       # Number of read requests responded to by this memory
system.mem_ctrls.num_reads::cpu05.inst          39874                       # Number of read requests responded to by this memory
system.mem_ctrls.num_reads::cpu05.data         247722                       # Number of read requests responded to by this memory
system.mem_ctrls.num_reads::cpu06.dtb.walker         2496                       # Number of read requests responded to by this memory
system.mem_ctrls.num_reads::cpu06.itb.walker          660                       # Number of read requests responded to by this memory
system.mem_ctrls.num_reads::cpu06.inst          33173                       # Number of read requests responded to by this memory
system.mem_ctrls.num_reads::cpu06.data         254212                       # Number of read requests responded to by this memory
system.mem_ctrls.num_reads::cpu07.dtb.walker         1943                       # Number of read requests responded to by this memory
system.mem_ctrls.num_reads::cpu07.itb.walker          505                       # Number of read requests responded to by this memory
system.mem_ctrls.num_reads::cpu07.inst          26411                       # Number of read requests responded to by this memory
system.mem_ctrls.num_reads::cpu07.data         248202                       # Number of read requests responded to by this memory
system.mem_ctrls.num_reads::cpu08.dtb.walker         2542                       # Number of read requests responded to by this memory
system.mem_ctrls.num_reads::cpu08.itb.walker          970                       # Number of read requests responded to by this memory
system.mem_ctrls.num_reads::cpu08.inst          53882                       # Number of read requests responded to by this memory
system.mem_ctrls.num_reads::cpu08.data         345813                       # Number of read requests responded to by this memory
system.mem_ctrls.num_reads::cpu09.dtb.walker         1269                       # Number of read requests responded to by this memory
system.mem_ctrls.num_reads::cpu09.itb.walker          370                       # Number of read requests responded to by this memory
system.mem_ctrls.num_reads::cpu09.inst          21476                       # Number of read requests responded to by this memory
system.mem_ctrls.num_reads::cpu09.data         251592                       # Number of read requests responded to by this memory
system.mem_ctrls.num_reads::cpu10.dtb.walker         2064                       # Number of read requests responded to by this memory
system.mem_ctrls.num_reads::cpu10.itb.walker          468                       # Number of read requests responded to by this memory
system.mem_ctrls.num_reads::cpu10.inst          26306                       # Number of read requests responded to by this memory
system.mem_ctrls.num_reads::cpu10.data         289440                       # Number of read requests responded to by this memory
system.mem_ctrls.num_reads::cpu11.dtb.walker         2034                       # Number of read requests responded to by this memory
system.mem_ctrls.num_reads::cpu11.itb.walker          620                       # Number of read requests responded to by this memory
system.mem_ctrls.num_reads::cpu11.inst          30514                       # Number of read requests responded to by this memory
system.mem_ctrls.num_reads::cpu11.data         305427                       # Number of read requests responded to by this memory
system.mem_ctrls.num_reads::cpu12.dtb.walker        53918                       # Number of read requests responded to by this memory
system.mem_ctrls.num_reads::cpu12.itb.walker         1174                       # Number of read requests responded to by this memory
system.mem_ctrls.num_reads::cpu12.inst          79747                       # Number of read requests responded to by this memory
system.mem_ctrls.num_reads::cpu12.data        2880583                       # Number of read requests responded to by this memory
system.mem_ctrls.num_reads::cpu13.dtb.walker         3614                       # Number of read requests responded to by this memory
system.mem_ctrls.num_reads::cpu13.itb.walker         3239                       # Number of read requests responded to by this memory
system.mem_ctrls.num_reads::cpu13.inst          83650                       # Number of read requests responded to by this memory
system.mem_ctrls.num_reads::cpu13.data         268049                       # Number of read requests responded to by this memory
system.mem_ctrls.num_reads::cpu14.dtb.walker        20236                       # Number of read requests responded to by this memory
system.mem_ctrls.num_reads::cpu14.itb.walker        13723                       # Number of read requests responded to by this memory
system.mem_ctrls.num_reads::cpu14.inst         301309                       # Number of read requests responded to by this memory
system.mem_ctrls.num_reads::cpu14.data         526089                       # Number of read requests responded to by this memory
system.mem_ctrls.num_reads::cpu15.dtb.walker         3740                       # Number of read requests responded to by this memory
system.mem_ctrls.num_reads::cpu15.itb.walker         2116                       # Number of read requests responded to by this memory
system.mem_ctrls.num_reads::cpu15.inst          60256                       # Number of read requests responded to by this memory
system.mem_ctrls.num_reads::cpu15.data         232455                       # Number of read requests responded to by this memory
system.mem_ctrls.num_reads::pci_ide                 1                       # Number of read requests responded to by this memory
system.mem_ctrls.num_reads::total             9390256                       # Number of read requests responded to by this memory
system.mem_ctrls.num_writes::writebacks       4616749                       # Number of write requests responded to by this memory
system.mem_ctrls.num_writes::total            4616749                       # Number of write requests responded to by this memory
system.mem_ctrls.bw_read::cpu00.dtb.walker           44                       # Total read bandwidth from this memory (bytes/s)
system.mem_ctrls.bw_read::cpu00.itb.walker           16                       # Total read bandwidth from this memory (bytes/s)
system.mem_ctrls.bw_read::cpu00.inst              988                       # Total read bandwidth from this memory (bytes/s)
system.mem_ctrls.bw_read::cpu00.data            20205                       # Total read bandwidth from this memory (bytes/s)
system.mem_ctrls.bw_read::cpu01.dtb.walker           22                       # Total read bandwidth from this memory (bytes/s)
system.mem_ctrls.bw_read::cpu01.itb.walker            3                       # Total read bandwidth from this memory (bytes/s)
system.mem_ctrls.bw_read::cpu01.inst              293                       # Total read bandwidth from this memory (bytes/s)
system.mem_ctrls.bw_read::cpu01.data             2952                       # Total read bandwidth from this memory (bytes/s)
system.mem_ctrls.bw_read::cpu02.dtb.walker           39                       # Total read bandwidth from this memory (bytes/s)
system.mem_ctrls.bw_read::cpu02.itb.walker           11                       # Total read bandwidth from this memory (bytes/s)
system.mem_ctrls.bw_read::cpu02.inst              508                       # Total read bandwidth from this memory (bytes/s)
system.mem_ctrls.bw_read::cpu02.data             3394                       # Total read bandwidth from this memory (bytes/s)
system.mem_ctrls.bw_read::cpu03.dtb.walker           37                       # Total read bandwidth from this memory (bytes/s)
system.mem_ctrls.bw_read::cpu03.itb.walker           11                       # Total read bandwidth from this memory (bytes/s)
system.mem_ctrls.bw_read::cpu03.inst              780                       # Total read bandwidth from this memory (bytes/s)
system.mem_ctrls.bw_read::cpu03.data             4338                       # Total read bandwidth from this memory (bytes/s)
system.mem_ctrls.bw_read::cpu04.dtb.walker           56                       # Total read bandwidth from this memory (bytes/s)
system.mem_ctrls.bw_read::cpu04.itb.walker           14                       # Total read bandwidth from this memory (bytes/s)
system.mem_ctrls.bw_read::cpu04.inst             1051                       # Total read bandwidth from this memory (bytes/s)
system.mem_ctrls.bw_read::cpu04.data             4101                       # Total read bandwidth from this memory (bytes/s)
system.mem_ctrls.bw_read::cpu05.dtb.walker           37                       # Total read bandwidth from this memory (bytes/s)
system.mem_ctrls.bw_read::cpu05.itb.walker            8                       # Total read bandwidth from this memory (bytes/s)
system.mem_ctrls.bw_read::cpu05.inst              582                       # Total read bandwidth from this memory (bytes/s)
system.mem_ctrls.bw_read::cpu05.data             3615                       # Total read bandwidth from this memory (bytes/s)
system.mem_ctrls.bw_read::cpu06.dtb.walker           36                       # Total read bandwidth from this memory (bytes/s)
system.mem_ctrls.bw_read::cpu06.itb.walker           10                       # Total read bandwidth from this memory (bytes/s)
system.mem_ctrls.bw_read::cpu06.inst              484                       # Total read bandwidth from this memory (bytes/s)
system.mem_ctrls.bw_read::cpu06.data             3709                       # Total read bandwidth from this memory (bytes/s)
system.mem_ctrls.bw_read::cpu07.dtb.walker           28                       # Total read bandwidth from this memory (bytes/s)
system.mem_ctrls.bw_read::cpu07.itb.walker            7                       # Total read bandwidth from this memory (bytes/s)
system.mem_ctrls.bw_read::cpu07.inst              385                       # Total read bandwidth from this memory (bytes/s)
system.mem_ctrls.bw_read::cpu07.data             3622                       # Total read bandwidth from this memory (bytes/s)
system.mem_ctrls.bw_read::cpu08.dtb.walker           37                       # Total read bandwidth from this memory (bytes/s)
system.mem_ctrls.bw_read::cpu08.itb.walker           14                       # Total read bandwidth from this memory (bytes/s)
system.mem_ctrls.bw_read::cpu08.inst              786                       # Total read bandwidth from this memory (bytes/s)
system.mem_ctrls.bw_read::cpu08.data             5046                       # Total read bandwidth from this memory (bytes/s)
system.mem_ctrls.bw_read::cpu09.dtb.walker           19                       # Total read bandwidth from this memory (bytes/s)
system.mem_ctrls.bw_read::cpu09.itb.walker            5                       # Total read bandwidth from this memory (bytes/s)
system.mem_ctrls.bw_read::cpu09.inst              313                       # Total read bandwidth from this memory (bytes/s)
system.mem_ctrls.bw_read::cpu09.data             3671                       # Total read bandwidth from this memory (bytes/s)
system.mem_ctrls.bw_read::cpu10.dtb.walker           30                       # Total read bandwidth from this memory (bytes/s)
system.mem_ctrls.bw_read::cpu10.itb.walker            7                       # Total read bandwidth from this memory (bytes/s)
system.mem_ctrls.bw_read::cpu10.inst              384                       # Total read bandwidth from this memory (bytes/s)
system.mem_ctrls.bw_read::cpu10.data             4223                       # Total read bandwidth from this memory (bytes/s)
system.mem_ctrls.bw_read::cpu11.dtb.walker           30                       # Total read bandwidth from this memory (bytes/s)
system.mem_ctrls.bw_read::cpu11.itb.walker            9                       # Total read bandwidth from this memory (bytes/s)
system.mem_ctrls.bw_read::cpu11.inst              445                       # Total read bandwidth from this memory (bytes/s)
system.mem_ctrls.bw_read::cpu11.data             4457                       # Total read bandwidth from this memory (bytes/s)
system.mem_ctrls.bw_read::cpu12.dtb.walker          787                       # Total read bandwidth from this memory (bytes/s)
system.mem_ctrls.bw_read::cpu12.itb.walker           17                       # Total read bandwidth from this memory (bytes/s)
system.mem_ctrls.bw_read::cpu12.inst             1164                       # Total read bandwidth from this memory (bytes/s)
system.mem_ctrls.bw_read::cpu12.data            42031                       # Total read bandwidth from this memory (bytes/s)
system.mem_ctrls.bw_read::cpu13.dtb.walker           53                       # Total read bandwidth from this memory (bytes/s)
system.mem_ctrls.bw_read::cpu13.itb.walker           47                       # Total read bandwidth from this memory (bytes/s)
system.mem_ctrls.bw_read::cpu13.inst             1221                       # Total read bandwidth from this memory (bytes/s)
system.mem_ctrls.bw_read::cpu13.data             3911                       # Total read bandwidth from this memory (bytes/s)
system.mem_ctrls.bw_read::cpu14.dtb.walker          295                       # Total read bandwidth from this memory (bytes/s)
system.mem_ctrls.bw_read::cpu14.itb.walker          200                       # Total read bandwidth from this memory (bytes/s)
system.mem_ctrls.bw_read::cpu14.inst             4396                       # Total read bandwidth from this memory (bytes/s)
system.mem_ctrls.bw_read::cpu14.data             7676                       # Total read bandwidth from this memory (bytes/s)
system.mem_ctrls.bw_read::cpu15.dtb.walker           55                       # Total read bandwidth from this memory (bytes/s)
system.mem_ctrls.bw_read::cpu15.itb.walker           31                       # Total read bandwidth from this memory (bytes/s)
system.mem_ctrls.bw_read::cpu15.inst              879                       # Total read bandwidth from this memory (bytes/s)
system.mem_ctrls.bw_read::cpu15.data             3392                       # Total read bandwidth from this memory (bytes/s)
system.mem_ctrls.bw_read::pci_ide                   0                       # Total read bandwidth from this memory (bytes/s)
system.mem_ctrls.bw_read::total                137015                       # Total read bandwidth from this memory (bytes/s)
system.mem_ctrls.bw_inst_read::cpu00.inst          988                       # Instruction read bandwidth from this memory (bytes/s)
system.mem_ctrls.bw_inst_read::cpu01.inst          293                       # Instruction read bandwidth from this memory (bytes/s)
system.mem_ctrls.bw_inst_read::cpu02.inst          508                       # Instruction read bandwidth from this memory (bytes/s)
system.mem_ctrls.bw_inst_read::cpu03.inst          780                       # Instruction read bandwidth from this memory (bytes/s)
system.mem_ctrls.bw_inst_read::cpu04.inst         1051                       # Instruction read bandwidth from this memory (bytes/s)
system.mem_ctrls.bw_inst_read::cpu05.inst          582                       # Instruction read bandwidth from this memory (bytes/s)
system.mem_ctrls.bw_inst_read::cpu06.inst          484                       # Instruction read bandwidth from this memory (bytes/s)
system.mem_ctrls.bw_inst_read::cpu07.inst          385                       # Instruction read bandwidth from this memory (bytes/s)
system.mem_ctrls.bw_inst_read::cpu08.inst          786                       # Instruction read bandwidth from this memory (bytes/s)
system.mem_ctrls.bw_inst_read::cpu09.inst          313                       # Instruction read bandwidth from this memory (bytes/s)
system.mem_ctrls.bw_inst_read::cpu10.inst          384                       # Instruction read bandwidth from this memory (bytes/s)
system.mem_ctrls.bw_inst_read::cpu11.inst          445                       # Instruction read bandwidth from this memory (bytes/s)
system.mem_ctrls.bw_inst_read::cpu12.inst         1164                       # Instruction read bandwidth from this memory (bytes/s)
system.mem_ctrls.bw_inst_read::cpu13.inst         1221                       # Instruction read bandwidth from this memory (bytes/s)
system.mem_ctrls.bw_inst_read::cpu14.inst         4396                       # Instruction read bandwidth from this memory (bytes/s)
system.mem_ctrls.bw_inst_read::cpu15.inst          879                       # Instruction read bandwidth from this memory (bytes/s)
system.mem_ctrls.bw_inst_read::total            14659                       # Instruction read bandwidth from this memory (bytes/s)
system.mem_ctrls.bw_write::writebacks           67364                       # Write bandwidth from this memory (bytes/s)
system.mem_ctrls.bw_write::total                67364                       # Write bandwidth from this memory (bytes/s)
system.mem_ctrls.bw_total::writebacks           67364                       # Total bandwidth to/from this memory (bytes/s)
system.mem_ctrls.bw_total::cpu00.dtb.walker           44                       # Total bandwidth to/from this memory (bytes/s)
system.mem_ctrls.bw_total::cpu00.itb.walker           16                       # Total bandwidth to/from this memory (bytes/s)
system.mem_ctrls.bw_total::cpu00.inst             988                       # Total bandwidth to/from this memory (bytes/s)
system.mem_ctrls.bw_total::cpu00.data           20205                       # Total bandwidth to/from this memory (bytes/s)
system.mem_ctrls.bw_total::cpu01.dtb.walker           22                       # Total bandwidth to/from this memory (bytes/s)
system.mem_ctrls.bw_total::cpu01.itb.walker            3                       # Total bandwidth to/from this memory (bytes/s)
system.mem_ctrls.bw_total::cpu01.inst             293                       # Total bandwidth to/from this memory (bytes/s)
system.mem_ctrls.bw_total::cpu01.data            2952                       # Total bandwidth to/from this memory (bytes/s)
system.mem_ctrls.bw_total::cpu02.dtb.walker           39                       # Total bandwidth to/from this memory (bytes/s)
system.mem_ctrls.bw_total::cpu02.itb.walker           11                       # Total bandwidth to/from this memory (bytes/s)
system.mem_ctrls.bw_total::cpu02.inst             508                       # Total bandwidth to/from this memory (bytes/s)
system.mem_ctrls.bw_total::cpu02.data            3394                       # Total bandwidth to/from this memory (bytes/s)
system.mem_ctrls.bw_total::cpu03.dtb.walker           37                       # Total bandwidth to/from this memory (bytes/s)
system.mem_ctrls.bw_total::cpu03.itb.walker           11                       # Total bandwidth to/from this memory (bytes/s)
system.mem_ctrls.bw_total::cpu03.inst             780                       # Total bandwidth to/from this memory (bytes/s)
system.mem_ctrls.bw_total::cpu03.data            4338                       # Total bandwidth to/from this memory (bytes/s)
system.mem_ctrls.bw_total::cpu04.dtb.walker           56                       # Total bandwidth to/from this memory (bytes/s)
system.mem_ctrls.bw_total::cpu04.itb.walker           14                       # Total bandwidth to/from this memory (bytes/s)
system.mem_ctrls.bw_total::cpu04.inst            1051                       # Total bandwidth to/from this memory (bytes/s)
system.mem_ctrls.bw_total::cpu04.data            4101                       # Total bandwidth to/from this memory (bytes/s)
system.mem_ctrls.bw_total::cpu05.dtb.walker           37                       # Total bandwidth to/from this memory (bytes/s)
system.mem_ctrls.bw_total::cpu05.itb.walker            8                       # Total bandwidth to/from this memory (bytes/s)
system.mem_ctrls.bw_total::cpu05.inst             582                       # Total bandwidth to/from this memory (bytes/s)
system.mem_ctrls.bw_total::cpu05.data            3615                       # Total bandwidth to/from this memory (bytes/s)
system.mem_ctrls.bw_total::cpu06.dtb.walker           36                       # Total bandwidth to/from this memory (bytes/s)
system.mem_ctrls.bw_total::cpu06.itb.walker           10                       # Total bandwidth to/from this memory (bytes/s)
system.mem_ctrls.bw_total::cpu06.inst             484                       # Total bandwidth to/from this memory (bytes/s)
system.mem_ctrls.bw_total::cpu06.data            3709                       # Total bandwidth to/from this memory (bytes/s)
system.mem_ctrls.bw_total::cpu07.dtb.walker           28                       # Total bandwidth to/from this memory (bytes/s)
system.mem_ctrls.bw_total::cpu07.itb.walker            7                       # Total bandwidth to/from this memory (bytes/s)
system.mem_ctrls.bw_total::cpu07.inst             385                       # Total bandwidth to/from this memory (bytes/s)
system.mem_ctrls.bw_total::cpu07.data            3622                       # Total bandwidth to/from this memory (bytes/s)
system.mem_ctrls.bw_total::cpu08.dtb.walker           37                       # Total bandwidth to/from this memory (bytes/s)
system.mem_ctrls.bw_total::cpu08.itb.walker           14                       # Total bandwidth to/from this memory (bytes/s)
system.mem_ctrls.bw_total::cpu08.inst             786                       # Total bandwidth to/from this memory (bytes/s)
system.mem_ctrls.bw_total::cpu08.data            5046                       # Total bandwidth to/from this memory (bytes/s)
system.mem_ctrls.bw_total::cpu09.dtb.walker           19                       # Total bandwidth to/from this memory (bytes/s)
system.mem_ctrls.bw_total::cpu09.itb.walker            5                       # Total bandwidth to/from this memory (bytes/s)
system.mem_ctrls.bw_total::cpu09.inst             313                       # Total bandwidth to/from this memory (bytes/s)
system.mem_ctrls.bw_total::cpu09.data            3671                       # Total bandwidth to/from this memory (bytes/s)
system.mem_ctrls.bw_total::cpu10.dtb.walker           30                       # Total bandwidth to/from this memory (bytes/s)
system.mem_ctrls.bw_total::cpu10.itb.walker            7                       # Total bandwidth to/from this memory (bytes/s)
system.mem_ctrls.bw_total::cpu10.inst             384                       # Total bandwidth to/from this memory (bytes/s)
system.mem_ctrls.bw_total::cpu10.data            4223                       # Total bandwidth to/from this memory (bytes/s)
system.mem_ctrls.bw_total::cpu11.dtb.walker           30                       # Total bandwidth to/from this memory (bytes/s)
system.mem_ctrls.bw_total::cpu11.itb.walker            9                       # Total bandwidth to/from this memory (bytes/s)
system.mem_ctrls.bw_total::cpu11.inst             445                       # Total bandwidth to/from this memory (bytes/s)
system.mem_ctrls.bw_total::cpu11.data            4457                       # Total bandwidth to/from this memory (bytes/s)
system.mem_ctrls.bw_total::cpu12.dtb.walker          787                       # Total bandwidth to/from this memory (bytes/s)
system.mem_ctrls.bw_total::cpu12.itb.walker           17                       # Total bandwidth to/from this memory (bytes/s)
system.mem_ctrls.bw_total::cpu12.inst            1164                       # Total bandwidth to/from this memory (bytes/s)
system.mem_ctrls.bw_total::cpu12.data           42031                       # Total bandwidth to/from this memory (bytes/s)
system.mem_ctrls.bw_total::cpu13.dtb.walker           53                       # Total bandwidth to/from this memory (bytes/s)
system.mem_ctrls.bw_total::cpu13.itb.walker           47                       # Total bandwidth to/from this memory (bytes/s)
system.mem_ctrls.bw_total::cpu13.inst            1221                       # Total bandwidth to/from this memory (bytes/s)
system.mem_ctrls.bw_total::cpu13.data            3911                       # Total bandwidth to/from this memory (bytes/s)
system.mem_ctrls.bw_total::cpu14.dtb.walker          295                       # Total bandwidth to/from this memory (bytes/s)
system.mem_ctrls.bw_total::cpu14.itb.walker          200                       # Total bandwidth to/from this memory (bytes/s)
system.mem_ctrls.bw_total::cpu14.inst            4396                       # Total bandwidth to/from this memory (bytes/s)
system.mem_ctrls.bw_total::cpu14.data            7676                       # Total bandwidth to/from this memory (bytes/s)
system.mem_ctrls.bw_total::cpu15.dtb.walker           55                       # Total bandwidth to/from this memory (bytes/s)
system.mem_ctrls.bw_total::cpu15.itb.walker           31                       # Total bandwidth to/from this memory (bytes/s)
system.mem_ctrls.bw_total::cpu15.inst             879                       # Total bandwidth to/from this memory (bytes/s)
system.mem_ctrls.bw_total::cpu15.data            3392                       # Total bandwidth to/from this memory (bytes/s)
system.mem_ctrls.bw_total::pci_ide                  0                       # Total bandwidth to/from this memory (bytes/s)
system.mem_ctrls.bw_total::total               204379                       # Total bandwidth to/from this memory (bytes/s)
system.mem_ctrls.readReqs                           0                       # Number of read requests accepted
system.mem_ctrls.writeReqs                          0                       # Number of write requests accepted
system.mem_ctrls.readBursts                         0                       # Number of DRAM read bursts, including those serviced by the write queue
system.mem_ctrls.writeBursts                        0                       # Number of DRAM write bursts, including those merged in the write queue
system.mem_ctrls.bytesReadDRAM                      0                       # Total number of bytes read from DRAM
system.mem_ctrls.bytesReadWrQ                       0                       # Total number of bytes read from write queue
system.mem_ctrls.bytesWritten                       0                       # Total number of bytes written to DRAM
system.mem_ctrls.bytesReadSys                       0                       # Total read bytes from the system interface side
system.mem_ctrls.bytesWrittenSys                    0                       # Total written bytes from the system interface side
system.mem_ctrls.servicedByWrQ                      0                       # Number of DRAM read bursts serviced by the write queue
system.mem_ctrls.mergedWrBursts                     0                       # Number of DRAM write bursts merged with an existing one
system.mem_ctrls.neitherReadNorWriteReqs            0                       # Number of requests that are neither read nor write
system.mem_ctrls.perBankRdBursts::0                 0                       # Per bank write bursts
system.mem_ctrls.perBankRdBursts::1                 0                       # Per bank write bursts
system.mem_ctrls.perBankRdBursts::2                 0                       # Per bank write bursts
system.mem_ctrls.perBankRdBursts::3                 0                       # Per bank write bursts
system.mem_ctrls.perBankRdBursts::4                 0                       # Per bank write bursts
system.mem_ctrls.perBankRdBursts::5                 0                       # Per bank write bursts
system.mem_ctrls.perBankRdBursts::6                 0                       # Per bank write bursts
system.mem_ctrls.perBankRdBursts::7                 0                       # Per bank write bursts
system.mem_ctrls.perBankRdBursts::8                 0                       # Per bank write bursts
system.mem_ctrls.perBankRdBursts::9                 0                       # Per bank write bursts
system.mem_ctrls.perBankRdBursts::10                0                       # Per bank write bursts
system.mem_ctrls.perBankRdBursts::11                0                       # Per bank write bursts
system.mem_ctrls.perBankRdBursts::12                0                       # Per bank write bursts
system.mem_ctrls.perBankRdBursts::13                0                       # Per bank write bursts
system.mem_ctrls.perBankRdBursts::14                0                       # Per bank write bursts
system.mem_ctrls.perBankRdBursts::15                0                       # Per bank write bursts
system.mem_ctrls.perBankRdBursts::16                0                       # Per bank write bursts
system.mem_ctrls.perBankRdBursts::17                0                       # Per bank write bursts
system.mem_ctrls.perBankRdBursts::18                0                       # Per bank write bursts
system.mem_ctrls.perBankRdBursts::19                0                       # Per bank write bursts
system.mem_ctrls.perBankRdBursts::20                0                       # Per bank write bursts
system.mem_ctrls.perBankRdBursts::21                0                       # Per bank write bursts
system.mem_ctrls.perBankRdBursts::22                0                       # Per bank write bursts
system.mem_ctrls.perBankRdBursts::23                0                       # Per bank write bursts
system.mem_ctrls.perBankRdBursts::24                0                       # Per bank write bursts
system.mem_ctrls.perBankRdBursts::25                0                       # Per bank write bursts
system.mem_ctrls.perBankRdBursts::26                0                       # Per bank write bursts
system.mem_ctrls.perBankRdBursts::27                0                       # Per bank write bursts
system.mem_ctrls.perBankRdBursts::28                0                       # Per bank write bursts
system.mem_ctrls.perBankRdBursts::29                0                       # Per bank write bursts
system.mem_ctrls.perBankRdBursts::30                0                       # Per bank write bursts
system.mem_ctrls.perBankRdBursts::31                0                       # Per bank write bursts
system.mem_ctrls.perBankWrBursts::0                 0                       # Per bank write bursts
system.mem_ctrls.perBankWrBursts::1                 0                       # Per bank write bursts
system.mem_ctrls.perBankWrBursts::2                 0                       # Per bank write bursts
system.mem_ctrls.perBankWrBursts::3                 0                       # Per bank write bursts
system.mem_ctrls.perBankWrBursts::4                 0                       # Per bank write bursts
system.mem_ctrls.perBankWrBursts::5                 0                       # Per bank write bursts
system.mem_ctrls.perBankWrBursts::6                 0                       # Per bank write bursts
system.mem_ctrls.perBankWrBursts::7                 0                       # Per bank write bursts
system.mem_ctrls.perBankWrBursts::8                 0                       # Per bank write bursts
system.mem_ctrls.perBankWrBursts::9                 0                       # Per bank write bursts
system.mem_ctrls.perBankWrBursts::10                0                       # Per bank write bursts
system.mem_ctrls.perBankWrBursts::11                0                       # Per bank write bursts
system.mem_ctrls.perBankWrBursts::12                0                       # Per bank write bursts
system.mem_ctrls.perBankWrBursts::13                0                       # Per bank write bursts
system.mem_ctrls.perBankWrBursts::14                0                       # Per bank write bursts
system.mem_ctrls.perBankWrBursts::15                0                       # Per bank write bursts
system.mem_ctrls.perBankWrBursts::16                0                       # Per bank write bursts
system.mem_ctrls.perBankWrBursts::17                0                       # Per bank write bursts
system.mem_ctrls.perBankWrBursts::18                0                       # Per bank write bursts
system.mem_ctrls.perBankWrBursts::19                0                       # Per bank write bursts
system.mem_ctrls.perBankWrBursts::20                0                       # Per bank write bursts
system.mem_ctrls.perBankWrBursts::21                0                       # Per bank write bursts
system.mem_ctrls.perBankWrBursts::22                0                       # Per bank write bursts
system.mem_ctrls.perBankWrBursts::23                0                       # Per bank write bursts
system.mem_ctrls.perBankWrBursts::24                0                       # Per bank write bursts
system.mem_ctrls.perBankWrBursts::25                0                       # Per bank write bursts
system.mem_ctrls.perBankWrBursts::26                0                       # Per bank write bursts
system.mem_ctrls.perBankWrBursts::27                0                       # Per bank write bursts
system.mem_ctrls.perBankWrBursts::28                0                       # Per bank write bursts
system.mem_ctrls.perBankWrBursts::29                0                       # Per bank write bursts
system.mem_ctrls.perBankWrBursts::30                0                       # Per bank write bursts
system.mem_ctrls.perBankWrBursts::31                0                       # Per bank write bursts
system.mem_ctrls.numRdRetry                         0                       # Number of times read queue was full causing retry
system.mem_ctrls.numWrRetry                         0                       # Number of times write queue was full causing retry
system.mem_ctrls.totGap                             0                       # Total gap between requests
system.mem_ctrls.readPktSize::0                     0                       # Read request sizes (log2)
system.mem_ctrls.readPktSize::1                     0                       # Read request sizes (log2)
system.mem_ctrls.readPktSize::2                     0                       # Read request sizes (log2)
system.mem_ctrls.readPktSize::3                     0                       # Read request sizes (log2)
system.mem_ctrls.readPktSize::4                     0                       # Read request sizes (log2)
system.mem_ctrls.readPktSize::5                     0                       # Read request sizes (log2)
system.mem_ctrls.readPktSize::6                     0                       # Read request sizes (log2)
system.mem_ctrls.writePktSize::0                    0                       # Write request sizes (log2)
system.mem_ctrls.writePktSize::1                    0                       # Write request sizes (log2)
system.mem_ctrls.writePktSize::2                    0                       # Write request sizes (log2)
system.mem_ctrls.writePktSize::3                    0                       # Write request sizes (log2)
system.mem_ctrls.writePktSize::4                    0                       # Write request sizes (log2)
system.mem_ctrls.writePktSize::5                    0                       # Write request sizes (log2)
system.mem_ctrls.writePktSize::6                    0                       # Write request sizes (log2)
system.mem_ctrls.rdQLenPdf::0                       0                       # What read queue length does an incoming req see
system.mem_ctrls.rdQLenPdf::1                       0                       # What read queue length does an incoming req see
system.mem_ctrls.rdQLenPdf::2                       0                       # What read queue length does an incoming req see
system.mem_ctrls.rdQLenPdf::3                       0                       # What read queue length does an incoming req see
system.mem_ctrls.rdQLenPdf::4                       0                       # What read queue length does an incoming req see
system.mem_ctrls.rdQLenPdf::5                       0                       # What read queue length does an incoming req see
system.mem_ctrls.rdQLenPdf::6                       0                       # What read queue length does an incoming req see
system.mem_ctrls.rdQLenPdf::7                       0                       # What read queue length does an incoming req see
system.mem_ctrls.rdQLenPdf::8                       0                       # What read queue length does an incoming req see
system.mem_ctrls.rdQLenPdf::9                       0                       # What read queue length does an incoming req see
system.mem_ctrls.rdQLenPdf::10                      0                       # What read queue length does an incoming req see
system.mem_ctrls.rdQLenPdf::11                      0                       # What read queue length does an incoming req see
system.mem_ctrls.rdQLenPdf::12                      0                       # What read queue length does an incoming req see
system.mem_ctrls.rdQLenPdf::13                      0                       # What read queue length does an incoming req see
system.mem_ctrls.rdQLenPdf::14                      0                       # What read queue length does an incoming req see
system.mem_ctrls.rdQLenPdf::15                      0                       # What read queue length does an incoming req see
system.mem_ctrls.rdQLenPdf::16                      0                       # What read queue length does an incoming req see
system.mem_ctrls.rdQLenPdf::17                      0                       # What read queue length does an incoming req see
system.mem_ctrls.rdQLenPdf::18                      0                       # What read queue length does an incoming req see
system.mem_ctrls.rdQLenPdf::19                      0                       # What read queue length does an incoming req see
system.mem_ctrls.rdQLenPdf::20                      0                       # What read queue length does an incoming req see
system.mem_ctrls.rdQLenPdf::21                      0                       # What read queue length does an incoming req see
system.mem_ctrls.rdQLenPdf::22                      0                       # What read queue length does an incoming req see
system.mem_ctrls.rdQLenPdf::23                      0                       # What read queue length does an incoming req see
system.mem_ctrls.rdQLenPdf::24                      0                       # What read queue length does an incoming req see
system.mem_ctrls.rdQLenPdf::25                      0                       # What read queue length does an incoming req see
system.mem_ctrls.rdQLenPdf::26                      0                       # What read queue length does an incoming req see
system.mem_ctrls.rdQLenPdf::27                      0                       # What read queue length does an incoming req see
system.mem_ctrls.rdQLenPdf::28                      0                       # What read queue length does an incoming req see
system.mem_ctrls.rdQLenPdf::29                      0                       # What read queue length does an incoming req see
system.mem_ctrls.rdQLenPdf::30                      0                       # What read queue length does an incoming req see
system.mem_ctrls.rdQLenPdf::31                      0                       # What read queue length does an incoming req see
system.mem_ctrls.rdQLenPdf::32                      0                       # What read queue length does an incoming req see
system.mem_ctrls.rdQLenPdf::33                      0                       # What read queue length does an incoming req see
system.mem_ctrls.rdQLenPdf::34                      0                       # What read queue length does an incoming req see
system.mem_ctrls.rdQLenPdf::35                      0                       # What read queue length does an incoming req see
system.mem_ctrls.rdQLenPdf::36                      0                       # What read queue length does an incoming req see
system.mem_ctrls.rdQLenPdf::37                      0                       # What read queue length does an incoming req see
system.mem_ctrls.rdQLenPdf::38                      0                       # What read queue length does an incoming req see
system.mem_ctrls.rdQLenPdf::39                      0                       # What read queue length does an incoming req see
system.mem_ctrls.rdQLenPdf::40                      0                       # What read queue length does an incoming req see
system.mem_ctrls.rdQLenPdf::41                      0                       # What read queue length does an incoming req see
system.mem_ctrls.rdQLenPdf::42                      0                       # What read queue length does an incoming req see
system.mem_ctrls.rdQLenPdf::43                      0                       # What read queue length does an incoming req see
system.mem_ctrls.rdQLenPdf::44                      0                       # What read queue length does an incoming req see
system.mem_ctrls.rdQLenPdf::45                      0                       # What read queue length does an incoming req see
system.mem_ctrls.rdQLenPdf::46                      0                       # What read queue length does an incoming req see
system.mem_ctrls.rdQLenPdf::47                      0                       # What read queue length does an incoming req see
system.mem_ctrls.rdQLenPdf::48                      0                       # What read queue length does an incoming req see
system.mem_ctrls.rdQLenPdf::49                      0                       # What read queue length does an incoming req see
system.mem_ctrls.rdQLenPdf::50                      0                       # What read queue length does an incoming req see
system.mem_ctrls.rdQLenPdf::51                      0                       # What read queue length does an incoming req see
system.mem_ctrls.rdQLenPdf::52                      0                       # What read queue length does an incoming req see
system.mem_ctrls.rdQLenPdf::53                      0                       # What read queue length does an incoming req see
system.mem_ctrls.rdQLenPdf::54                      0                       # What read queue length does an incoming req see
system.mem_ctrls.rdQLenPdf::55                      0                       # What read queue length does an incoming req see
system.mem_ctrls.rdQLenPdf::56                      0                       # What read queue length does an incoming req see
system.mem_ctrls.rdQLenPdf::57                      0                       # What read queue length does an incoming req see
system.mem_ctrls.rdQLenPdf::58                      0                       # What read queue length does an incoming req see
system.mem_ctrls.rdQLenPdf::59                      0                       # What read queue length does an incoming req see
system.mem_ctrls.rdQLenPdf::60                      0                       # What read queue length does an incoming req see
system.mem_ctrls.rdQLenPdf::61                      0                       # What read queue length does an incoming req see
system.mem_ctrls.rdQLenPdf::62                      0                       # What read queue length does an incoming req see
system.mem_ctrls.rdQLenPdf::63                      0                       # What read queue length does an incoming req see
system.mem_ctrls.wrQLenPdf::0                       0                       # What write queue length does an incoming req see
system.mem_ctrls.wrQLenPdf::1                       0                       # What write queue length does an incoming req see
system.mem_ctrls.wrQLenPdf::2                       0                       # What write queue length does an incoming req see
system.mem_ctrls.wrQLenPdf::3                       0                       # What write queue length does an incoming req see
system.mem_ctrls.wrQLenPdf::4                       0                       # What write queue length does an incoming req see
system.mem_ctrls.wrQLenPdf::5                       0                       # What write queue length does an incoming req see
system.mem_ctrls.wrQLenPdf::6                       0                       # What write queue length does an incoming req see
system.mem_ctrls.wrQLenPdf::7                       0                       # What write queue length does an incoming req see
system.mem_ctrls.wrQLenPdf::8                       0                       # What write queue length does an incoming req see
system.mem_ctrls.wrQLenPdf::9                       0                       # What write queue length does an incoming req see
system.mem_ctrls.wrQLenPdf::10                      0                       # What write queue length does an incoming req see
system.mem_ctrls.wrQLenPdf::11                      0                       # What write queue length does an incoming req see
system.mem_ctrls.wrQLenPdf::12                      0                       # What write queue length does an incoming req see
system.mem_ctrls.wrQLenPdf::13                      0                       # What write queue length does an incoming req see
system.mem_ctrls.wrQLenPdf::14                      0                       # What write queue length does an incoming req see
system.mem_ctrls.wrQLenPdf::15                      0                       # What write queue length does an incoming req see
system.mem_ctrls.wrQLenPdf::16                      0                       # What write queue length does an incoming req see
system.mem_ctrls.wrQLenPdf::17                      0                       # What write queue length does an incoming req see
system.mem_ctrls.wrQLenPdf::18                      0                       # What write queue length does an incoming req see
system.mem_ctrls.wrQLenPdf::19                      0                       # What write queue length does an incoming req see
system.mem_ctrls.wrQLenPdf::20                      0                       # What write queue length does an incoming req see
system.mem_ctrls.wrQLenPdf::21                      0                       # What write queue length does an incoming req see
system.mem_ctrls.wrQLenPdf::22                      0                       # What write queue length does an incoming req see
system.mem_ctrls.wrQLenPdf::23                      0                       # What write queue length does an incoming req see
system.mem_ctrls.wrQLenPdf::24                      0                       # What write queue length does an incoming req see
system.mem_ctrls.wrQLenPdf::25                      0                       # What write queue length does an incoming req see
system.mem_ctrls.wrQLenPdf::26                      0                       # What write queue length does an incoming req see
system.mem_ctrls.wrQLenPdf::27                      0                       # What write queue length does an incoming req see
system.mem_ctrls.wrQLenPdf::28                      0                       # What write queue length does an incoming req see
system.mem_ctrls.wrQLenPdf::29                      0                       # What write queue length does an incoming req see
system.mem_ctrls.wrQLenPdf::30                      0                       # What write queue length does an incoming req see
system.mem_ctrls.wrQLenPdf::31                      0                       # What write queue length does an incoming req see
system.mem_ctrls.wrQLenPdf::32                      0                       # What write queue length does an incoming req see
system.mem_ctrls.wrQLenPdf::33                      0                       # What write queue length does an incoming req see
system.mem_ctrls.wrQLenPdf::34                      0                       # What write queue length does an incoming req see
system.mem_ctrls.wrQLenPdf::35                      0                       # What write queue length does an incoming req see
system.mem_ctrls.wrQLenPdf::36                      0                       # What write queue length does an incoming req see
system.mem_ctrls.wrQLenPdf::37                      0                       # What write queue length does an incoming req see
system.mem_ctrls.wrQLenPdf::38                      0                       # What write queue length does an incoming req see
system.mem_ctrls.wrQLenPdf::39                      0                       # What write queue length does an incoming req see
system.mem_ctrls.wrQLenPdf::40                      0                       # What write queue length does an incoming req see
system.mem_ctrls.wrQLenPdf::41                      0                       # What write queue length does an incoming req see
system.mem_ctrls.wrQLenPdf::42                      0                       # What write queue length does an incoming req see
system.mem_ctrls.wrQLenPdf::43                      0                       # What write queue length does an incoming req see
system.mem_ctrls.wrQLenPdf::44                      0                       # What write queue length does an incoming req see
system.mem_ctrls.wrQLenPdf::45                      0                       # What write queue length does an incoming req see
system.mem_ctrls.wrQLenPdf::46                      0                       # What write queue length does an incoming req see
system.mem_ctrls.wrQLenPdf::47                      0                       # What write queue length does an incoming req see
system.mem_ctrls.wrQLenPdf::48                      0                       # What write queue length does an incoming req see
system.mem_ctrls.wrQLenPdf::49                      0                       # What write queue length does an incoming req see
system.mem_ctrls.wrQLenPdf::50                      0                       # What write queue length does an incoming req see
system.mem_ctrls.wrQLenPdf::51                      0                       # What write queue length does an incoming req see
system.mem_ctrls.wrQLenPdf::52                      0                       # What write queue length does an incoming req see
system.mem_ctrls.wrQLenPdf::53                      0                       # What write queue length does an incoming req see
system.mem_ctrls.wrQLenPdf::54                      0                       # What write queue length does an incoming req see
system.mem_ctrls.wrQLenPdf::55                      0                       # What write queue length does an incoming req see
system.mem_ctrls.wrQLenPdf::56                      0                       # What write queue length does an incoming req see
system.mem_ctrls.wrQLenPdf::57                      0                       # What write queue length does an incoming req see
system.mem_ctrls.wrQLenPdf::58                      0                       # What write queue length does an incoming req see
system.mem_ctrls.wrQLenPdf::59                      0                       # What write queue length does an incoming req see
system.mem_ctrls.wrQLenPdf::60                      0                       # What write queue length does an incoming req see
system.mem_ctrls.wrQLenPdf::61                      0                       # What write queue length does an incoming req see
system.mem_ctrls.wrQLenPdf::62                      0                       # What write queue length does an incoming req see
system.mem_ctrls.wrQLenPdf::63                      0                       # What write queue length does an incoming req see
system.mem_ctrls.wrQLenPdf::64                      0                       # What write queue length does an incoming req see
system.mem_ctrls.wrQLenPdf::65                      0                       # What write queue length does an incoming req see
system.mem_ctrls.wrQLenPdf::66                      0                       # What write queue length does an incoming req see
system.mem_ctrls.wrQLenPdf::67                      0                       # What write queue length does an incoming req see
system.mem_ctrls.wrQLenPdf::68                      0                       # What write queue length does an incoming req see
system.mem_ctrls.wrQLenPdf::69                      0                       # What write queue length does an incoming req see
system.mem_ctrls.wrQLenPdf::70                      0                       # What write queue length does an incoming req see
system.mem_ctrls.wrQLenPdf::71                      0                       # What write queue length does an incoming req see
system.mem_ctrls.wrQLenPdf::72                      0                       # What write queue length does an incoming req see
system.mem_ctrls.wrQLenPdf::73                      0                       # What write queue length does an incoming req see
system.mem_ctrls.wrQLenPdf::74                      0                       # What write queue length does an incoming req see
system.mem_ctrls.wrQLenPdf::75                      0                       # What write queue length does an incoming req see
system.mem_ctrls.wrQLenPdf::76                      0                       # What write queue length does an incoming req see
system.mem_ctrls.wrQLenPdf::77                      0                       # What write queue length does an incoming req see
system.mem_ctrls.wrQLenPdf::78                      0                       # What write queue length does an incoming req see
system.mem_ctrls.wrQLenPdf::79                      0                       # What write queue length does an incoming req see
system.mem_ctrls.wrQLenPdf::80                      0                       # What write queue length does an incoming req see
system.mem_ctrls.wrQLenPdf::81                      0                       # What write queue length does an incoming req see
system.mem_ctrls.wrQLenPdf::82                      0                       # What write queue length does an incoming req see
system.mem_ctrls.wrQLenPdf::83                      0                       # What write queue length does an incoming req see
system.mem_ctrls.wrQLenPdf::84                      0                       # What write queue length does an incoming req see
system.mem_ctrls.wrQLenPdf::85                      0                       # What write queue length does an incoming req see
system.mem_ctrls.wrQLenPdf::86                      0                       # What write queue length does an incoming req see
system.mem_ctrls.wrQLenPdf::87                      0                       # What write queue length does an incoming req see
system.mem_ctrls.wrQLenPdf::88                      0                       # What write queue length does an incoming req see
system.mem_ctrls.wrQLenPdf::89                      0                       # What write queue length does an incoming req see
system.mem_ctrls.wrQLenPdf::90                      0                       # What write queue length does an incoming req see
system.mem_ctrls.wrQLenPdf::91                      0                       # What write queue length does an incoming req see
system.mem_ctrls.wrQLenPdf::92                      0                       # What write queue length does an incoming req see
system.mem_ctrls.wrQLenPdf::93                      0                       # What write queue length does an incoming req see
system.mem_ctrls.wrQLenPdf::94                      0                       # What write queue length does an incoming req see
system.mem_ctrls.wrQLenPdf::95                      0                       # What write queue length does an incoming req see
system.mem_ctrls.wrQLenPdf::96                      0                       # What write queue length does an incoming req see
system.mem_ctrls.wrQLenPdf::97                      0                       # What write queue length does an incoming req see
system.mem_ctrls.wrQLenPdf::98                      0                       # What write queue length does an incoming req see
system.mem_ctrls.wrQLenPdf::99                      0                       # What write queue length does an incoming req see
system.mem_ctrls.wrQLenPdf::100                     0                       # What write queue length does an incoming req see
system.mem_ctrls.wrQLenPdf::101                     0                       # What write queue length does an incoming req see
system.mem_ctrls.wrQLenPdf::102                     0                       # What write queue length does an incoming req see
system.mem_ctrls.wrQLenPdf::103                     0                       # What write queue length does an incoming req see
system.mem_ctrls.wrQLenPdf::104                     0                       # What write queue length does an incoming req see
system.mem_ctrls.wrQLenPdf::105                     0                       # What write queue length does an incoming req see
system.mem_ctrls.wrQLenPdf::106                     0                       # What write queue length does an incoming req see
system.mem_ctrls.wrQLenPdf::107                     0                       # What write queue length does an incoming req see
system.mem_ctrls.wrQLenPdf::108                     0                       # What write queue length does an incoming req see
system.mem_ctrls.wrQLenPdf::109                     0                       # What write queue length does an incoming req see
system.mem_ctrls.wrQLenPdf::110                     0                       # What write queue length does an incoming req see
system.mem_ctrls.wrQLenPdf::111                     0                       # What write queue length does an incoming req see
system.mem_ctrls.wrQLenPdf::112                     0                       # What write queue length does an incoming req see
system.mem_ctrls.wrQLenPdf::113                     0                       # What write queue length does an incoming req see
system.mem_ctrls.wrQLenPdf::114                     0                       # What write queue length does an incoming req see
system.mem_ctrls.wrQLenPdf::115                     0                       # What write queue length does an incoming req see
system.mem_ctrls.wrQLenPdf::116                     0                       # What write queue length does an incoming req see
system.mem_ctrls.wrQLenPdf::117                     0                       # What write queue length does an incoming req see
system.mem_ctrls.wrQLenPdf::118                     0                       # What write queue length does an incoming req see
system.mem_ctrls.wrQLenPdf::119                     0                       # What write queue length does an incoming req see
system.mem_ctrls.wrQLenPdf::120                     0                       # What write queue length does an incoming req see
system.mem_ctrls.wrQLenPdf::121                     0                       # What write queue length does an incoming req see
system.mem_ctrls.wrQLenPdf::122                     0                       # What write queue length does an incoming req see
system.mem_ctrls.wrQLenPdf::123                     0                       # What write queue length does an incoming req see
system.mem_ctrls.wrQLenPdf::124                     0                       # What write queue length does an incoming req see
system.mem_ctrls.wrQLenPdf::125                     0                       # What write queue length does an incoming req see
system.mem_ctrls.wrQLenPdf::126                     0                       # What write queue length does an incoming req see
system.mem_ctrls.wrQLenPdf::127                     0                       # What write queue length does an incoming req see
system.mem_ctrls.totQLat                            0                       # Total ticks spent queuing
system.mem_ctrls.totMemAccLat                       0                       # Total ticks spent from burst creation until serviced by the DRAM
system.mem_ctrls.totBusLat                          0                       # Total ticks spent in databus transfers
system.mem_ctrls.avgQLat                          nan                       # Average queueing delay per DRAM burst
system.mem_ctrls.avgBusLat                        nan                       # Average bus latency per DRAM burst
system.mem_ctrls.avgMemAccLat                     nan                       # Average memory access latency per DRAM burst
system.mem_ctrls.avgRdBW                         0.00                       # Average DRAM read bandwidth in MiByte/s
system.mem_ctrls.avgWrBW                         0.00                       # Average achieved write bandwidth in MiByte/s
system.mem_ctrls.avgRdBWSys                      0.00                       # Average system read bandwidth in MiByte/s
system.mem_ctrls.avgWrBWSys                      0.00                       # Average system write bandwidth in MiByte/s
system.mem_ctrls.peakBW                      19207.00                       # Theoretical peak bandwidth in MiByte/s
system.mem_ctrls.busUtil                         0.00                       # Data bus utilization in percentage
system.mem_ctrls.busUtilRead                     0.00                       # Data bus utilization in percentage for reads
system.mem_ctrls.busUtilWrite                    0.00                       # Data bus utilization in percentage for writes
system.mem_ctrls.avgRdQLen                       0.00                       # Average read queue length when enqueuing
system.mem_ctrls.avgWrQLen                       0.00                       # Average write queue length when enqueuing
system.mem_ctrls.readRowHits                        0                       # Number of row buffer hits during reads
system.mem_ctrls.writeRowHits                       0                       # Number of row buffer hits during writes
system.mem_ctrls.readRowHitRate                   nan                       # Row buffer hit rate for reads
system.mem_ctrls.writeRowHitRate                  nan                       # Row buffer hit rate for writes
system.mem_ctrls.avgGap                           nan                       # Average gap between requests
system.mem_ctrls.pageHitRate                      nan                       # Row buffer hit rate, read and write combined
system.mem_ctrls_0.actEnergy                        0                       # Energy for activate commands per rank (pJ)
system.mem_ctrls_0.preEnergy                        0                       # Energy for precharge commands per rank (pJ)
system.mem_ctrls_0.readEnergy                       0                       # Energy for read commands per rank (pJ)
system.mem_ctrls_0.writeEnergy                      0                       # Energy for write commands per rank (pJ)
system.mem_ctrls_0.refreshEnergy                    0                       # Energy for refresh commands per rank (pJ)
system.mem_ctrls_0.actBackEnergy                    0                       # Energy for active background per rank (pJ)
system.mem_ctrls_0.preBackEnergy         715828058113513.875000                       # Energy for precharge background per rank (pJ)
system.mem_ctrls_0.actPowerDownEnergy               0                       # Energy for active power-down per rank (pJ)
system.mem_ctrls_0.prePowerDownEnergy               0                       # Energy for precharge power-down per rank (pJ)
system.mem_ctrls_0.selfRefreshEnergy                0                       # Energy for self refresh per rank (pJ)
system.mem_ctrls_0.totalEnergy           715828058113513.875000                       # Total energy per rank (pJ)
system.mem_ctrls_0.averagePower            163.200000                       # Core power per rank (mW)
system.mem_ctrls_0.totalIdleTime                    0                       # Total Idle time Per DRAM Rank
system.mem_ctrls_0.memoryStateTime::IDLE 11133324391260500                       # Time in different power states
system.mem_ctrls_0.memoryStateTime::REF             0                       # Time in different power states
system.mem_ctrls_0.memoryStateTime::SREF            0                       # Time in different power states
system.mem_ctrls_0.memoryStateTime::PRE_PDN            0                       # Time in different power states
system.mem_ctrls_0.memoryStateTime::ACT             0                       # Time in different power states
system.mem_ctrls_0.memoryStateTime::ACT_PDN            0                       # Time in different power states
system.mem_ctrls_1.actEnergy                        0                       # Energy for activate commands per rank (pJ)
system.mem_ctrls_1.preEnergy                        0                       # Energy for precharge commands per rank (pJ)
system.mem_ctrls_1.readEnergy                       0                       # Energy for read commands per rank (pJ)
system.mem_ctrls_1.writeEnergy                      0                       # Energy for write commands per rank (pJ)
system.mem_ctrls_1.refreshEnergy                    0                       # Energy for refresh commands per rank (pJ)
system.mem_ctrls_1.actBackEnergy                    0                       # Energy for active background per rank (pJ)
[...]
system.tol2bus2.trans_dist::WritebackClean      1823214                       # Transaction distribution
system.tol2bus2.trans_dist::CleanEvict        1655599                       # Transaction distribution
system.tol2bus2.trans_dist::UpgradeReq          93883                       # Transaction distribution
system.tol2bus2.trans_dist::SCUpgradeReq        47522                       # Transaction distribution
system.tol2bus2.trans_dist::UpgradeResp        141405                       # Transaction distribution
system.tol2bus2.trans_dist::ReadExReq          883503                       # Transaction distribution
system.tol2bus2.trans_dist::ReadExResp         883503                       # Transaction distribution
system.tol2bus2.trans_dist::ReadCleanReq      1825262                       # Transaction distribution
system.tol2bus2.trans_dist::ReadSharedReq      3514875                       # Transaction distribution
system.tol2bus2.trans_dist::CleanSharedReq        50816                       # Transaction distribution
system.tol2bus2.trans_dist::CleanSharedResp        50816                       # Transaction distribution
system.tol2bus2.trans_dist::InvalidateReq        93674                       # Transaction distribution
system.tol2bus2.trans_dist::InvalidateResp        93674                       # Transaction distribution
system.tol2bus2.pkt_count_system.cpu08.icache.mem_side::system.l22.cpu_side      1990906                       # Packet count per connected master and slave (bytes)
system.tol2bus2.pkt_count_system.cpu08.dcache.mem_side::system.l22.cpu_side      3989220                       # Packet count per connected master and slave (bytes)
system.tol2bus2.pkt_count_system.cpu08.itb.walker.dma::system.l22.cpu_side       242530                       # Packet count per connected master and slave (bytes)
system.tol2bus2.pkt_count_system.cpu08.dtb.walker.dma::system.l22.cpu_side       309814                       # Packet count per connected master and slave (bytes)
system.tol2bus2.pkt_count_system.cpu09.icache.mem_side::system.l22.cpu_side      1102159                       # Packet count per connected master and slave (bytes)
system.tol2bus2.pkt_count_system.cpu09.dcache.mem_side::system.l22.cpu_side      3044832                       # Packet count per connected master and slave (bytes)
system.tol2bus2.pkt_count_system.cpu09.itb.walker.dma::system.l22.cpu_side       159880                       # Packet count per connected master and slave (bytes)
system.tol2bus2.pkt_count_system.cpu09.dtb.walker.dma::system.l22.cpu_side       193184                       # Packet count per connected master and slave (bytes)
system.tol2bus2.pkt_count_system.cpu10.icache.mem_side::system.l22.cpu_side      1123933                       # Packet count per connected master and slave (bytes)
system.tol2bus2.pkt_count_system.cpu10.dcache.mem_side::system.l22.cpu_side      3300022                       # Packet count per connected master and slave (bytes)
system.tol2bus2.pkt_count_system.cpu10.itb.walker.dma::system.l22.cpu_side       122338                       # Packet count per connected master and slave (bytes)
system.tol2bus2.pkt_count_system.cpu10.dtb.walker.dma::system.l22.cpu_side       276512                       # Packet count per connected master and slave (bytes)
system.tol2bus2.pkt_count_system.cpu11.icache.mem_side::system.l22.cpu_side      1256740                       # Packet count per connected master and slave (bytes)
system.tol2bus2.pkt_count_system.cpu11.dcache.mem_side::system.l22.cpu_side      3431395                       # Packet count per connected master and slave (bytes)
system.tol2bus2.pkt_count_system.cpu11.itb.walker.dma::system.l22.cpu_side       186090                       # Packet count per connected master and slave (bytes)
system.tol2bus2.pkt_count_system.cpu11.dtb.walker.dma::system.l22.cpu_side       298322                       # Packet count per connected master and slave (bytes)
system.tol2bus2.pkt_count::total             21027877                       # Packet count per connected master and slave (bytes)
system.tol2bus2.pkt_size_system.cpu08.icache.mem_side::system.l22.cpu_side     84934400                       # Cumulative packet size per connected master and slave (bytes)
system.tol2bus2.pkt_size_system.cpu08.dcache.mem_side::system.l22.cpu_side    130021715                       # Cumulative packet size per connected master and slave (bytes)
system.tol2bus2.pkt_size_system.cpu08.itb.walker.dma::system.l22.cpu_side       970120                       # Cumulative packet size per connected master and slave (bytes)
system.tol2bus2.pkt_size_system.cpu08.dtb.walker.dma::system.l22.cpu_side      1239256                       # Cumulative packet size per connected master and slave (bytes)
system.tol2bus2.pkt_size_system.cpu09.icache.mem_side::system.l22.cpu_side     47014528                       # Cumulative packet size per connected master and slave (bytes)
system.tol2bus2.pkt_size_system.cpu09.dcache.mem_side::system.l22.cpu_side    104582057                       # Cumulative packet size per connected master and slave (bytes)
system.tol2bus2.pkt_size_system.cpu09.itb.walker.dma::system.l22.cpu_side       639520                       # Cumulative packet size per connected master and slave (bytes)
system.tol2bus2.pkt_size_system.cpu09.dtb.walker.dma::system.l22.cpu_side       772736                       # Cumulative packet size per connected master and slave (bytes)
system.tol2bus2.pkt_size_system.cpu10.icache.mem_side::system.l22.cpu_side     47943552                       # Cumulative packet size per connected master and slave (bytes)
system.tol2bus2.pkt_size_system.cpu10.dcache.mem_side::system.l22.cpu_side    108607408                       # Cumulative packet size per connected master and slave (bytes)
system.tol2bus2.pkt_size_system.cpu10.itb.walker.dma::system.l22.cpu_side       489352                       # Cumulative packet size per connected master and slave (bytes)
system.tol2bus2.pkt_size_system.cpu10.dtb.walker.dma::system.l22.cpu_side      1106048                       # Cumulative packet size per connected master and slave (bytes)
system.tol2bus2.pkt_size_system.cpu11.icache.mem_side::system.l22.cpu_side     53609984                       # Cumulative packet size per connected master and slave (bytes)
system.tol2bus2.pkt_size_system.cpu11.dcache.mem_side::system.l22.cpu_side    111649918                       # Cumulative packet size per connected master and slave (bytes)
system.tol2bus2.pkt_size_system.cpu11.itb.walker.dma::system.l22.cpu_side       744360                       # Cumulative packet size per connected master and slave (bytes)
system.tol2bus2.pkt_size_system.cpu11.dtb.walker.dma::system.l22.cpu_side      1193288                       # Cumulative packet size per connected master and slave (bytes)
system.tol2bus2.pkt_size::total             695518242                       # Cumulative packet size per connected master and slave (bytes)
system.tol2bus2.snoops                        2683625                       # Total snoops (count)
system.tol2bus2.snoopTraffic                 45843584                       # Total snoop traffic (bytes)
system.tol2bus2.snoop_fanout::samples         9964760                       # Request fanout histogram
system.tol2bus2.snoop_fanout::mean           0.361098                       # Request fanout histogram
system.tol2bus2.snoop_fanout::stdev          0.822482                       # Request fanout histogram
system.tol2bus2.snoop_fanout::underflows            0      0.00%      0.00% # Request fanout histogram
system.tol2bus2.snoop_fanout::0               7926346     79.54%     79.54% # Request fanout histogram
system.tol2bus2.snoop_fanout::1               1067768     10.72%     90.26% # Request fanout histogram
system.tol2bus2.snoop_fanout::2                451687      4.53%     94.79% # Request fanout histogram
system.tol2bus2.snoop_fanout::3                449861      4.51%     99.31% # Request fanout histogram
system.tol2bus2.snoop_fanout::4                 68432      0.69%     99.99% # Request fanout histogram
system.tol2bus2.snoop_fanout::5                   292      0.00%    100.00% # Request fanout histogram
system.tol2bus2.snoop_fanout::6                   274      0.00%    100.00% # Request fanout histogram
system.tol2bus2.snoop_fanout::7                    99      0.00%    100.00% # Request fanout histogram
system.tol2bus2.snoop_fanout::8                     1      0.00%    100.00% # Request fanout histogram
system.tol2bus2.snoop_fanout::overflows             0      0.00%    100.00% # Request fanout histogram
system.tol2bus2.snoop_fanout::min_value             0                       # Request fanout histogram
system.tol2bus2.snoop_fanout::max_value             8                       # Request fanout histogram
system.tol2bus2.snoop_fanout::total           9964760                       # Request fanout histogram
system.tol2bus2.directResponses                     0                       # auxiliar stat for checking how reasonable wireless model is
system.tol2bus3.snoop_filter.tot_requests     53432149                       # Total number of requests made to the snoop filter.
system.tol2bus3.snoop_filter.hit_single_requests     24959033                       # Number of requests hitting in the snoop filter with a single holder of the requested data.
system.tol2bus3.snoop_filter.hit_multi_requests      5642238                       # Number of requests hitting in the snoop filter with multiple (>1) holders of the requested data.
system.tol2bus3.snoop_filter.tot_snoops        879936                       # Total number of snoops made to the snoop filter.
system.tol2bus3.snoop_filter.hit_single_snoops       675658                       # Number of snoops hitting in the snoop filter with a single holder of the requested data.
system.tol2bus3.snoop_filter.hit_multi_snoops       204278                       # Number of snoops hitting in the snoop filter with multiple (>1) holders of the requested data.
system.tol2bus3.pwrStateResidencyTicks::UNDEFINED 11133324391260500                       # Cumulative time (in ticks) in various power states
system.tol2bus3.trans_dist::ReadReq          12638626                       # Transaction distribution
system.tol2bus3.trans_dist::ReadResp         36862187                       # Transaction distribution
system.tol2bus3.trans_dist::WriteReq            15855                       # Transaction distribution
system.tol2bus3.trans_dist::WriteResp           15855                       # Transaction distribution
system.tol2bus3.trans_dist::WritebackDirty      5418633                       # Transaction distribution
system.tol2bus3.trans_dist::WritebackClean     14055924                       # Transaction distribution
system.tol2bus3.trans_dist::CleanEvict        6939187                       # Transaction distribution
system.tol2bus3.trans_dist::UpgradeReq         138311                       # Transaction distribution
system.tol2bus3.trans_dist::SCUpgradeReq        84557                       # Transaction distribution
system.tol2bus3.trans_dist::UpgradeResp        222868                       # Transaction distribution
system.tol2bus3.trans_dist::ReadExReq         1964243                       # Transaction distribution
system.tol2bus3.trans_dist::ReadExResp        1964243                       # Transaction distribution
system.tol2bus3.trans_dist::ReadCleanReq     14057972                       # Transaction distribution
system.tol2bus3.trans_dist::ReadSharedReq     10165589                       # Transaction distribution
system.tol2bus3.trans_dist::CleanSharedReq         3136                       # Transaction distribution
system.tol2bus3.trans_dist::CleanSharedResp         3136                       # Transaction distribution
system.tol2bus3.trans_dist::InvalidateReq       436311                       # Transaction distribution
system.tol2bus3.trans_dist::InvalidateResp       436311                       # Transaction distribution
system.tol2bus3.pkt_count_system.cpu12.icache.mem_side::system.l23.cpu_side      3080056                       # Packet count per connected master and slave (bytes)
system.tol2bus3.pkt_count_system.cpu12.dcache.mem_side::system.l23.cpu_side     17789306                       # Packet count per connected master and slave (bytes)
system.tol2bus3.pkt_count_system.cpu12.itb.walker.dma::system.l23.cpu_side       335868                       # Packet count per connected master and slave (bytes)
system.tol2bus3.pkt_count_system.cpu12.dtb.walker.dma::system.l23.cpu_side     14796124                       # Packet count per connected master and slave (bytes)
system.tol2bus3.pkt_count_system.cpu13.icache.mem_side::system.l23.cpu_side      4957873                       # Packet count per connected master and slave (bytes)
system.tol2bus3.pkt_count_system.cpu13.dcache.mem_side::system.l23.cpu_side      4442561                       # Packet count per connected master and slave (bytes)
system.tol2bus3.pkt_count_system.cpu13.itb.walker.dma::system.l23.cpu_side       983040                       # Packet count per connected master and slave (bytes)
system.tol2bus3.pkt_count_system.cpu13.dtb.walker.dma::system.l23.cpu_side       654006                       # Packet count per connected master and slave (bytes)
system.tol2bus3.pkt_count_system.cpu14.icache.mem_side::system.l23.cpu_side     30123328                       # Packet count per connected master and slave (bytes)
system.tol2bus3.pkt_count_system.cpu14.dcache.mem_side::system.l23.cpu_side     12060365                       # Packet count per connected master and slave (bytes)
system.tol2bus3.pkt_count_system.cpu14.itb.walker.dma::system.l23.cpu_side      6034338                       # Packet count per connected master and slave (bytes)
system.tol2bus3.pkt_count_system.cpu14.dtb.walker.dma::system.l23.cpu_side      1297306                       # Packet count per connected master and slave (bytes)
system.tol2bus3.pkt_count_system.cpu15.icache.mem_side::system.l23.cpu_side      4010611                       # Packet count per connected master and slave (bytes)
system.tol2bus3.pkt_count_system.cpu15.dcache.mem_side::system.l23.cpu_side      3714984                       # Packet count per connected master and slave (bytes)
system.tol2bus3.pkt_count_system.cpu15.itb.walker.dma::system.l23.cpu_side       754478                       # Packet count per connected master and slave (bytes)
system.tol2bus3.pkt_count_system.cpu15.dtb.walker.dma::system.l23.cpu_side       388700                       # Packet count per connected master and slave (bytes)
system.tol2bus3.pkt_count::total            105422944                       # Packet count per connected master and slave (bytes)
system.tol2bus3.pkt_size_system.cpu12.icache.mem_side::system.l23.cpu_side    131404800                       # Cumulative packet size per connected master and slave (bytes)
system.tol2bus3.pkt_size_system.cpu12.dcache.mem_side::system.l23.cpu_side    471538460                       # Cumulative packet size per connected master and slave (bytes)
system.tol2bus3.pkt_size_system.cpu12.itb.walker.dma::system.l23.cpu_side      1343472                       # Cumulative packet size per connected master and slave (bytes)
system.tol2bus3.pkt_size_system.cpu12.dtb.walker.dma::system.l23.cpu_side     59184496                       # Cumulative packet size per connected master and slave (bytes)
system.tol2bus3.pkt_size_system.cpu13.icache.mem_side::system.l23.cpu_side    211524992                       # Cumulative packet size per connected master and slave (bytes)
system.tol2bus3.pkt_size_system.cpu13.dcache.mem_side::system.l23.cpu_side    144809493                       # Cumulative packet size per connected master and slave (bytes)
system.tol2bus3.pkt_size_system.cpu13.itb.walker.dma::system.l23.cpu_side      3932160                       # Cumulative packet size per connected master and slave (bytes)
system.tol2bus3.pkt_size_system.cpu13.dtb.walker.dma::system.l23.cpu_side      2616024                       # Cumulative packet size per connected master and slave (bytes)
system.tol2bus3.pkt_size_system.cpu14.icache.mem_side::system.l23.cpu_side   1285251072                       # Cumulative packet size per connected master and slave (bytes)
system.tol2bus3.pkt_size_system.cpu14.dcache.mem_side::system.l23.cpu_side    382848016                       # Cumulative packet size per connected master and slave (bytes)
system.tol2bus3.pkt_size_system.cpu14.itb.walker.dma::system.l23.cpu_side     24137352                       # Cumulative packet size per connected master and slave (bytes)
system.tol2bus3.pkt_size_system.cpu14.dtb.walker.dma::system.l23.cpu_side      5189224                       # Cumulative packet size per connected master and slave (bytes)
system.tol2bus3.pkt_size_system.cpu15.icache.mem_side::system.l23.cpu_side    171108480                       # Cumulative packet size per connected master and slave (bytes)
system.tol2bus3.pkt_size_system.cpu15.dcache.mem_side::system.l23.cpu_side    124020940                       # Cumulative packet size per connected master and slave (bytes)
system.tol2bus3.pkt_size_system.cpu15.itb.walker.dma::system.l23.cpu_side      3017912                       # Cumulative packet size per connected master and slave (bytes)
system.tol2bus3.pkt_size_system.cpu15.dtb.walker.dma::system.l23.cpu_side      1554800                       # Cumulative packet size per connected master and slave (bytes)
system.tol2bus3.pkt_size::total            3023481693                       # Cumulative packet size per connected master and slave (bytes)
system.tol2bus3.snoops                        6677719                       # Total snoops (count)
system.tol2bus3.snoopTraffic                 89295616                       # Total snoop traffic (bytes)
system.tol2bus3.snoop_fanout::samples        45968991                       # Request fanout histogram
system.tol2bus3.snoop_fanout::mean           0.170903                       # Request fanout histogram
system.tol2bus3.snoop_fanout::stdev          0.558127                       # Request fanout histogram
system.tol2bus3.snoop_fanout::underflows            0      0.00%      0.00% # Request fanout histogram
system.tol2bus3.snoop_fanout::0              41059000     89.32%     89.32% # Request fanout histogram
system.tol2bus3.snoop_fanout::1               2854383      6.21%     95.53% # Request fanout histogram
system.tol2bus3.snoop_fanout::2               1228305      2.67%     98.20% # Request fanout histogram
system.tol2bus3.snoop_fanout::3                765750      1.67%     99.87% # Request fanout histogram
system.tol2bus3.snoop_fanout::4                 60613      0.13%    100.00% # Request fanout histogram
system.tol2bus3.snoop_fanout::5                   381      0.00%    100.00% # Request fanout histogram
system.tol2bus3.snoop_fanout::6                   301      0.00%    100.00% # Request fanout histogram
system.tol2bus3.snoop_fanout::7                   253      0.00%    100.00% # Request fanout histogram
system.tol2bus3.snoop_fanout::8                     5      0.00%    100.00% # Request fanout histogram
system.tol2bus3.snoop_fanout::overflows             0      0.00%    100.00% # Request fanout histogram
system.tol2bus3.snoop_fanout::min_value             0                       # Request fanout histogram
system.tol2bus3.snoop_fanout::max_value             8                       # Request fanout histogram
system.tol2bus3.snoop_fanout::total          45968991                       # Request fanout histogram
system.tol2bus3.directResponses                     0                       # auxiliar stat for checking how reasonable wireless model is

---------- End Simulation Statistics   ----------
