
---------- Begin Simulation Statistics ----------
sim_seconds                               1935.977864                       # Number of seconds simulated
sim_ticks                                1935977863922500                       # Number of ticks simulated
final_tick                               8683100918703500                       # Number of ticks from beginning of simulation (restored from checkpoints and never reset)
sim_freq                                 1000000000000                       # Frequency of simulated ticks
host_inst_rate                                2686545                       # Simulator instruction rate (inst/s)
host_op_rate                                  2925300                       # Simulator op (including micro ops) rate (op/s)
host_tick_rate                           753928980376                       # Simulator tick rate (ticks/s)
host_mem_usage                                5024732                       # Number of bytes of host memory used
host_seconds                                  2567.85                       # Real time elapsed on the host
sim_insts                                  6898648294                       # Number of instructions simulated
sim_ops                                    7511737967                       # Number of ops (including micro ops) simulated
system.voltage_domain.voltage                       1                       # Voltage in Volts
system.clk_domain.clock                           625                       # Clock period in ticks
system.bootmem.pwrStateResidencyTicks::UNDEFINED 8683100918703500                       # Cumulative time (in ticks) in various power states
system.mem_ctrls.pwrStateResidencyTicks::UNDEFINED 8683100918703500                       # Cumulative time (in ticks) in various power states
system.mem_ctrls.bytes_read::cpu00.dtb.walker        41792                       # Number of bytes read from this memory
system.mem_ctrls.bytes_read::cpu00.itb.walker        28352                       # Number of bytes read from this memory
system.mem_ctrls.bytes_read::cpu00.inst       2188352                       # Number of bytes read from this memory
system.mem_ctrls.bytes_read::cpu00.data       3899712                       # Number of bytes read from this memory
system.mem_ctrls.bytes_read::cpu01.dtb.walker        73664                       # Number of bytes read from this memory
system.mem_ctrls.bytes_read::cpu01.itb.walker        21440                       # Number of bytes read from this memory
system.mem_ctrls.bytes_read::cpu01.inst        827776                       # Number of bytes read from this memory
system.mem_ctrls.bytes_read::cpu01.data       5471936                       # Number of bytes read from this memory
system.mem_ctrls.bytes_read::cpu02.dtb.walker         9664                       # Number of bytes read from this memory
system.mem_ctrls.bytes_read::cpu02.itb.walker         7168                       # Number of bytes read from this memory
system.mem_ctrls.bytes_read::cpu02.inst        879744                       # Number of bytes read from this memory
system.mem_ctrls.bytes_read::cpu02.data       1311168                       # Number of bytes read from this memory
system.mem_ctrls.bytes_read::cpu03.dtb.walker        13952                       # Number of bytes read from this memory
system.mem_ctrls.bytes_read::cpu03.itb.walker        14528                       # Number of bytes read from this memory
system.mem_ctrls.bytes_read::cpu03.inst       1307968                       # Number of bytes read from this memory
system.mem_ctrls.bytes_read::cpu03.data       1923328                       # Number of bytes read from this memory
system.mem_ctrls.bytes_read::cpu04.dtb.walker        28544                       # Number of bytes read from this memory
system.mem_ctrls.bytes_read::cpu04.itb.walker        14528                       # Number of bytes read from this memory
system.mem_ctrls.bytes_read::cpu04.inst       1161536                       # Number of bytes read from this memory
system.mem_ctrls.bytes_read::cpu04.data       1165440                       # Number of bytes read from this memory
system.mem_ctrls.bytes_read::cpu05.dtb.walker         9536                       # Number of bytes read from this memory
system.mem_ctrls.bytes_read::cpu05.itb.walker         7936                       # Number of bytes read from this memory
system.mem_ctrls.bytes_read::cpu05.inst        670976                       # Number of bytes read from this memory
system.mem_ctrls.bytes_read::cpu05.data       1074048                       # Number of bytes read from this memory
system.mem_ctrls.bytes_read::cpu06.dtb.walker         3648                       # Number of bytes read from this memory
system.mem_ctrls.bytes_read::cpu06.itb.walker         5184                       # Number of bytes read from this memory
system.mem_ctrls.bytes_read::cpu06.inst        326592                       # Number of bytes read from this memory
system.mem_ctrls.bytes_read::cpu06.data        355328                       # Number of bytes read from this memory
system.mem_ctrls.bytes_read::cpu07.dtb.walker         4032                       # Number of bytes read from this memory
system.mem_ctrls.bytes_read::cpu07.itb.walker         5888                       # Number of bytes read from this memory
system.mem_ctrls.bytes_read::cpu07.inst        445568                       # Number of bytes read from this memory
system.mem_ctrls.bytes_read::cpu07.data        585216                       # Number of bytes read from this memory
system.mem_ctrls.bytes_read::cpu08.dtb.walker         5248                       # Number of bytes read from this memory
system.mem_ctrls.bytes_read::cpu08.itb.walker         5888                       # Number of bytes read from this memory
system.mem_ctrls.bytes_read::cpu08.inst        424384                       # Number of bytes read from this memory
system.mem_ctrls.bytes_read::cpu08.data        574720                       # Number of bytes read from this memory
system.mem_ctrls.bytes_read::cpu09.dtb.walker         2880                       # Number of bytes read from this memory
system.mem_ctrls.bytes_read::cpu09.itb.walker         3072                       # Number of bytes read from this memory
system.mem_ctrls.bytes_read::cpu09.inst        250560                       # Number of bytes read from this memory
system.mem_ctrls.bytes_read::cpu09.data        387776                       # Number of bytes read from this memory
system.mem_ctrls.bytes_read::cpu11.dtb.walker         3776                       # Number of bytes read from this memory
system.mem_ctrls.bytes_read::cpu11.itb.walker         3392                       # Number of bytes read from this memory
system.mem_ctrls.bytes_read::cpu11.inst        381184                       # Number of bytes read from this memory
system.mem_ctrls.bytes_read::cpu11.data        407616                       # Number of bytes read from this memory
system.mem_ctrls.bytes_read::cpu12.dtb.walker         3392                       # Number of bytes read from this memory
system.mem_ctrls.bytes_read::cpu12.itb.walker         3520                       # Number of bytes read from this memory
system.mem_ctrls.bytes_read::cpu12.inst        344576                       # Number of bytes read from this memory
system.mem_ctrls.bytes_read::cpu12.data        343936                       # Number of bytes read from this memory
system.mem_ctrls.bytes_read::cpu13.dtb.walker        22208                       # Number of bytes read from this memory
system.mem_ctrls.bytes_read::cpu13.itb.walker        16448                       # Number of bytes read from this memory
system.mem_ctrls.bytes_read::cpu13.inst        995520                       # Number of bytes read from this memory
system.mem_ctrls.bytes_read::cpu13.data       1029056                       # Number of bytes read from this memory
system.mem_ctrls.bytes_read::cpu14.dtb.walker       458368                       # Number of bytes read from this memory
system.mem_ctrls.bytes_read::cpu14.itb.walker       379200                       # Number of bytes read from this memory
system.mem_ctrls.bytes_read::cpu14.inst       6084736                       # Number of bytes read from this memory
system.mem_ctrls.bytes_read::cpu14.data       5140352                       # Number of bytes read from this memory
system.mem_ctrls.bytes_read::cpu15.dtb.walker        10752                       # Number of bytes read from this memory
system.mem_ctrls.bytes_read::cpu15.itb.walker         7296                       # Number of bytes read from this memory
system.mem_ctrls.bytes_read::cpu15.inst        378560                       # Number of bytes read from this memory
system.mem_ctrls.bytes_read::cpu15.data        211520                       # Number of bytes read from this memory
system.mem_ctrls.bytes_read::total           41764480                       # Number of bytes read from this memory
system.mem_ctrls.bytes_inst_read::cpu00.inst      2188352                       # Number of instructions bytes read from this memory
system.mem_ctrls.bytes_inst_read::cpu01.inst       827776                       # Number of instructions bytes read from this memory
system.mem_ctrls.bytes_inst_read::cpu02.inst       879744                       # Number of instructions bytes read from this memory
system.mem_ctrls.bytes_inst_read::cpu03.inst      1307968                       # Number of instructions bytes read from this memory
system.mem_ctrls.bytes_inst_read::cpu04.inst      1161536                       # Number of instructions bytes read from this memory
system.mem_ctrls.bytes_inst_read::cpu05.inst       670976                       # Number of instructions bytes read from this memory
system.mem_ctrls.bytes_inst_read::cpu06.inst       326592                       # Number of instructions bytes read from this memory
system.mem_ctrls.bytes_inst_read::cpu07.inst       445568                       # Number of instructions bytes read from this memory
system.mem_ctrls.bytes_inst_read::cpu08.inst       424384                       # Number of instructions bytes read from this memory
system.mem_ctrls.bytes_inst_read::cpu09.inst       250560                       # Number of instructions bytes read from this memory
system.mem_ctrls.bytes_inst_read::cpu11.inst       381184                       # Number of instructions bytes read from this memory
system.mem_ctrls.bytes_inst_read::cpu12.inst       344576                       # Number of instructions bytes read from this memory
system.mem_ctrls.bytes_inst_read::cpu13.inst       995520                       # Number of instructions bytes read from this memory
system.mem_ctrls.bytes_inst_read::cpu14.inst      6084736                       # Number of instructions bytes read from this memory
system.mem_ctrls.bytes_inst_read::cpu15.inst       378560                       # Number of instructions bytes read from this memory
system.mem_ctrls.bytes_inst_read::total      16668032                       # Number of instructions bytes read from this memory
system.mem_ctrls.bytes_written::writebacks     40737600                       # Number of bytes written to this memory
system.mem_ctrls.bytes_written::total        40737600                       # Number of bytes written to this memory
system.mem_ctrls.num_reads::cpu00.dtb.walker          653                       # Number of read requests responded to by this memory
system.mem_ctrls.num_reads::cpu00.itb.walker          443                       # Number of read requests responded to by this memory
system.mem_ctrls.num_reads::cpu00.inst          34193                       # Number of read requests responded to by this memory
system.mem_ctrls.num_reads::cpu00.data          60933                       # Number of read requests responded to by this memory
system.mem_ctrls.num_reads::cpu01.dtb.walker         1151                       # Number of read requests responded to by this memory
system.mem_ctrls.num_reads::cpu01.itb.walker          335                       # Number of read requests responded to by this memory
system.mem_ctrls.num_reads::cpu01.inst          12934                       # Number of read requests responded to by this memory
system.mem_ctrls.num_reads::cpu01.data          85499                       # Number of read requests responded to by this memory
system.mem_ctrls.num_reads::cpu02.dtb.walker          151                       # Number of read requests responded to by this memory
system.mem_ctrls.num_reads::cpu02.itb.walker          112                       # Number of read requests responded to by this memory
system.mem_ctrls.num_reads::cpu02.inst          13746                       # Number of read requests responded to by this memory
system.mem_ctrls.num_reads::cpu02.data          20487                       # Number of read requests responded to by this memory
system.mem_ctrls.num_reads::cpu03.dtb.walker          218                       # Number of read requests responded to by this memory
system.mem_ctrls.num_reads::cpu03.itb.walker          227                       # Number of read requests responded to by this memory
system.mem_ctrls.num_reads::cpu03.inst          20437                       # Number of read requests responded to by this memory
system.mem_ctrls.num_reads::cpu03.data          30052                       # Number of read requests responded to by this memory
system.mem_ctrls.num_reads::cpu04.dtb.walker          446                       # Number of read requests responded to by this memory
system.mem_ctrls.num_reads::cpu04.itb.walker          227                       # Number of read requests responded to by this memory
system.mem_ctrls.num_reads::cpu04.inst          18149                       # Number of read requests responded to by this memory
system.mem_ctrls.num_reads::cpu04.data          18210                       # Number of read requests responded to by this memory
system.mem_ctrls.num_reads::cpu05.dtb.walker          149                       # Number of read requests responded to by this memory
system.mem_ctrls.num_reads::cpu05.itb.walker          124                       # Number of read requests responded to by this memory
system.mem_ctrls.num_reads::cpu05.inst          10484                       # Number of read requests responded to by this memory
system.mem_ctrls.num_reads::cpu05.data          16782                       # Number of read requests responded to by this memory
system.mem_ctrls.num_reads::cpu06.dtb.walker           57                       # Number of read requests responded to by this memory
system.mem_ctrls.num_reads::cpu06.itb.walker           81                       # Number of read requests responded to by this memory
system.mem_ctrls.num_reads::cpu06.inst           5103                       # Number of read requests responded to by this memory
system.mem_ctrls.num_reads::cpu06.data           5552                       # Number of read requests responded to by this memory
system.mem_ctrls.num_reads::cpu07.dtb.walker           63                       # Number of read requests responded to by this memory
system.mem_ctrls.num_reads::cpu07.itb.walker           92                       # Number of read requests responded to by this memory
system.mem_ctrls.num_reads::cpu07.inst           6962                       # Number of read requests responded to by this memory
system.mem_ctrls.num_reads::cpu07.data           9144                       # Number of read requests responded to by this memory
system.mem_ctrls.num_reads::cpu08.dtb.walker           82                       # Number of read requests responded to by this memory
system.mem_ctrls.num_reads::cpu08.itb.walker           92                       # Number of read requests responded to by this memory
system.mem_ctrls.num_reads::cpu08.inst           6631                       # Number of read requests responded to by this memory
system.mem_ctrls.num_reads::cpu08.data           8980                       # Number of read requests responded to by this memory
system.mem_ctrls.num_reads::cpu09.dtb.walker           45                       # Number of read requests responded to by this memory
system.mem_ctrls.num_reads::cpu09.itb.walker           48                       # Number of read requests responded to by this memory
system.mem_ctrls.num_reads::cpu09.inst           3915                       # Number of read requests responded to by this memory
system.mem_ctrls.num_reads::cpu09.data           6059                       # Number of read requests responded to by this memory
system.mem_ctrls.num_reads::cpu11.dtb.walker           59                       # Number of read requests responded to by this memory
system.mem_ctrls.num_reads::cpu11.itb.walker           53                       # Number of read requests responded to by this memory
system.mem_ctrls.num_reads::cpu11.inst           5956                       # Number of read requests responded to by this memory
system.mem_ctrls.num_reads::cpu11.data           6369                       # Number of read requests responded to by this memory
system.mem_ctrls.num_reads::cpu12.dtb.walker           53                       # Number of read requests responded to by this memory
system.mem_ctrls.num_reads::cpu12.itb.walker           55                       # Number of read requests responded to by this memory
system.mem_ctrls.num_reads::cpu12.inst           5384                       # Number of read requests responded to by this memory
system.mem_ctrls.num_reads::cpu12.data           5374                       # Number of read requests responded to by this memory
system.mem_ctrls.num_reads::cpu13.dtb.walker          347                       # Number of read requests responded to by this memory
system.mem_ctrls.num_reads::cpu13.itb.walker          257                       # Number of read requests responded to by this memory
system.mem_ctrls.num_reads::cpu13.inst          15555                       # Number of read requests responded to by this memory
system.mem_ctrls.num_reads::cpu13.data          16079                       # Number of read requests responded to by this memory
system.mem_ctrls.num_reads::cpu14.dtb.walker         7162                       # Number of read requests responded to by this memory
system.mem_ctrls.num_reads::cpu14.itb.walker         5925                       # Number of read requests responded to by this memory
system.mem_ctrls.num_reads::cpu14.inst          95074                       # Number of read requests responded to by this memory
system.mem_ctrls.num_reads::cpu14.data          80318                       # Number of read requests responded to by this memory
system.mem_ctrls.num_reads::cpu15.dtb.walker          168                       # Number of read requests responded to by this memory
system.mem_ctrls.num_reads::cpu15.itb.walker          114                       # Number of read requests responded to by this memory
system.mem_ctrls.num_reads::cpu15.inst           5915                       # Number of read requests responded to by this memory
system.mem_ctrls.num_reads::cpu15.data           3305                       # Number of read requests responded to by this memory
system.mem_ctrls.num_reads::total              652570                       # Number of read requests responded to by this memory
system.mem_ctrls.num_writes::writebacks        636525                       # Number of write requests responded to by this memory
system.mem_ctrls.num_writes::total             636525                       # Number of write requests responded to by this memory
system.mem_ctrls.bw_read::cpu00.dtb.walker           22                       # Total read bandwidth from this memory (bytes/s)
system.mem_ctrls.bw_read::cpu00.itb.walker           15                       # Total read bandwidth from this memory (bytes/s)
system.mem_ctrls.bw_read::cpu00.inst             1130                       # Total read bandwidth from this memory (bytes/s)
system.mem_ctrls.bw_read::cpu00.data             2014                       # Total read bandwidth from this memory (bytes/s)
system.mem_ctrls.bw_read::cpu01.dtb.walker           38                       # Total read bandwidth from this memory (bytes/s)
system.mem_ctrls.bw_read::cpu01.itb.walker           11                       # Total read bandwidth from this memory (bytes/s)
system.mem_ctrls.bw_read::cpu01.inst              428                       # Total read bandwidth from this memory (bytes/s)
system.mem_ctrls.bw_read::cpu01.data             2826                       # Total read bandwidth from this memory (bytes/s)
system.mem_ctrls.bw_read::cpu02.dtb.walker            5                       # Total read bandwidth from this memory (bytes/s)
system.mem_ctrls.bw_read::cpu02.itb.walker            4                       # Total read bandwidth from this memory (bytes/s)
system.mem_ctrls.bw_read::cpu02.inst              454                       # Total read bandwidth from this memory (bytes/s)
system.mem_ctrls.bw_read::cpu02.data              677                       # Total read bandwidth from this memory (bytes/s)
system.mem_ctrls.bw_read::cpu03.dtb.walker            7                       # Total read bandwidth from this memory (bytes/s)
system.mem_ctrls.bw_read::cpu03.itb.walker            8                       # Total read bandwidth from this memory (bytes/s)
system.mem_ctrls.bw_read::cpu03.inst              676                       # Total read bandwidth from this memory (bytes/s)
system.mem_ctrls.bw_read::cpu03.data              993                       # Total read bandwidth from this memory (bytes/s)
system.mem_ctrls.bw_read::cpu04.dtb.walker           15                       # Total read bandwidth from this memory (bytes/s)
system.mem_ctrls.bw_read::cpu04.itb.walker            8                       # Total read bandwidth from this memory (bytes/s)
system.mem_ctrls.bw_read::cpu04.inst              600                       # Total read bandwidth from this memory (bytes/s)
system.mem_ctrls.bw_read::cpu04.data              602                       # Total read bandwidth from this memory (bytes/s)
system.mem_ctrls.bw_read::cpu05.dtb.walker            5                       # Total read bandwidth from this memory (bytes/s)
system.mem_ctrls.bw_read::cpu05.itb.walker            4                       # Total read bandwidth from this memory (bytes/s)
system.mem_ctrls.bw_read::cpu05.inst              347                       # Total read bandwidth from this memory (bytes/s)
system.mem_ctrls.bw_read::cpu05.data              555                       # Total read bandwidth from this memory (bytes/s)
system.mem_ctrls.bw_read::cpu06.dtb.walker            2                       # Total read bandwidth from this memory (bytes/s)
system.mem_ctrls.bw_read::cpu06.itb.walker            3                       # Total read bandwidth from this memory (bytes/s)
system.mem_ctrls.bw_read::cpu06.inst              169                       # Total read bandwidth from this memory (bytes/s)
system.mem_ctrls.bw_read::cpu06.data              184                       # Total read bandwidth from this memory (bytes/s)
system.mem_ctrls.bw_read::cpu07.dtb.walker            2                       # Total read bandwidth from this memory (bytes/s)
system.mem_ctrls.bw_read::cpu07.itb.walker            3                       # Total read bandwidth from this memory (bytes/s)
system.mem_ctrls.bw_read::cpu07.inst              230                       # Total read bandwidth from this memory (bytes/s)
system.mem_ctrls.bw_read::cpu07.data              302                       # Total read bandwidth from this memory (bytes/s)
system.mem_ctrls.bw_read::cpu08.dtb.walker            3                       # Total read bandwidth from this memory (bytes/s)
system.mem_ctrls.bw_read::cpu08.itb.walker            3                       # Total read bandwidth from this memory (bytes/s)
system.mem_ctrls.bw_read::cpu08.inst              219                       # Total read bandwidth from this memory (bytes/s)
system.mem_ctrls.bw_read::cpu08.data              297                       # Total read bandwidth from this memory (bytes/s)
system.mem_ctrls.bw_read::cpu09.dtb.walker            1                       # Total read bandwidth from this memory (bytes/s)
system.mem_ctrls.bw_read::cpu09.itb.walker            2                       # Total read bandwidth from this memory (bytes/s)
system.mem_ctrls.bw_read::cpu09.inst              129                       # Total read bandwidth from this memory (bytes/s)
system.mem_ctrls.bw_read::cpu09.data              200                       # Total read bandwidth from this memory (bytes/s)
system.mem_ctrls.bw_read::cpu11.dtb.walker            2                       # Total read bandwidth from this memory (bytes/s)
system.mem_ctrls.bw_read::cpu11.itb.walker            2                       # Total read bandwidth from this memory (bytes/s)
system.mem_ctrls.bw_read::cpu11.inst              197                       # Total read bandwidth from this memory (bytes/s)
system.mem_ctrls.bw_read::cpu11.data              211                       # Total read bandwidth from this memory (bytes/s)
system.mem_ctrls.bw_read::cpu12.dtb.walker            2                       # Total read bandwidth from this memory (bytes/s)
system.mem_ctrls.bw_read::cpu12.itb.walker            2                       # Total read bandwidth from this memory (bytes/s)
system.mem_ctrls.bw_read::cpu12.inst              178                       # Total read bandwidth from this memory (bytes/s)
system.mem_ctrls.bw_read::cpu12.data              178                       # Total read bandwidth from this memory (bytes/s)
system.mem_ctrls.bw_read::cpu13.dtb.walker           11                       # Total read bandwidth from this memory (bytes/s)
system.mem_ctrls.bw_read::cpu13.itb.walker            8                       # Total read bandwidth from this memory (bytes/s)
system.mem_ctrls.bw_read::cpu13.inst              514                       # Total read bandwidth from this memory (bytes/s)
system.mem_ctrls.bw_read::cpu13.data              532                       # Total read bandwidth from this memory (bytes/s)
system.mem_ctrls.bw_read::cpu14.dtb.walker          237                       # Total read bandwidth from this memory (bytes/s)
system.mem_ctrls.bw_read::cpu14.itb.walker          196                       # Total read bandwidth from this memory (bytes/s)
system.mem_ctrls.bw_read::cpu14.inst             3143                       # Total read bandwidth from this memory (bytes/s)
system.mem_ctrls.bw_read::cpu14.data             2655                       # Total read bandwidth from this memory (bytes/s)
system.mem_ctrls.bw_read::cpu15.dtb.walker            6                       # Total read bandwidth from this memory (bytes/s)
system.mem_ctrls.bw_read::cpu15.itb.walker            4                       # Total read bandwidth from this memory (bytes/s)
system.mem_ctrls.bw_read::cpu15.inst              196                       # Total read bandwidth from this memory (bytes/s)
system.mem_ctrls.bw_read::cpu15.data              109                       # Total read bandwidth from this memory (bytes/s)
system.mem_ctrls.bw_read::total                 21573                       # Total read bandwidth from this memory (bytes/s)
system.mem_ctrls.bw_inst_read::cpu00.inst         1130                       # Instruction read bandwidth from this memory (bytes/s)
system.mem_ctrls.bw_inst_read::cpu01.inst          428                       # Instruction read bandwidth from this memory (bytes/s)
system.mem_ctrls.bw_inst_read::cpu02.inst          454                       # Instruction read bandwidth from this memory (bytes/s)
system.mem_ctrls.bw_inst_read::cpu03.inst          676                       # Instruction read bandwidth from this memory (bytes/s)
system.mem_ctrls.bw_inst_read::cpu04.inst          600                       # Instruction read bandwidth from this memory (bytes/s)
system.mem_ctrls.bw_inst_read::cpu05.inst          347                       # Instruction read bandwidth from this memory (bytes/s)
system.mem_ctrls.bw_inst_read::cpu06.inst          169                       # Instruction read bandwidth from this memory (bytes/s)
system.mem_ctrls.bw_inst_read::cpu07.inst          230                       # Instruction read bandwidth from this memory (bytes/s)
system.mem_ctrls.bw_inst_read::cpu08.inst          219                       # Instruction read bandwidth from this memory (bytes/s)
system.mem_ctrls.bw_inst_read::cpu09.inst          129                       # Instruction read bandwidth from this memory (bytes/s)
system.mem_ctrls.bw_inst_read::cpu11.inst          197                       # Instruction read bandwidth from this memory (bytes/s)
system.mem_ctrls.bw_inst_read::cpu12.inst          178                       # Instruction read bandwidth from this memory (bytes/s)
system.mem_ctrls.bw_inst_read::cpu13.inst          514                       # Instruction read bandwidth from this memory (bytes/s)
system.mem_ctrls.bw_inst_read::cpu14.inst         3143                       # Instruction read bandwidth from this memory (bytes/s)
system.mem_ctrls.bw_inst_read::cpu15.inst          196                       # Instruction read bandwidth from this memory (bytes/s)
system.mem_ctrls.bw_inst_read::total             8610                       # Instruction read bandwidth from this memory (bytes/s)
system.mem_ctrls.bw_write::writebacks           21042                       # Write bandwidth from this memory (bytes/s)
system.mem_ctrls.bw_write::total                21042                       # Write bandwidth from this memory (bytes/s)
system.mem_ctrls.bw_total::writebacks           21042                       # Total bandwidth to/from this memory (bytes/s)
system.mem_ctrls.bw_total::cpu00.dtb.walker           22                       # Total bandwidth to/from this memory (bytes/s)
system.mem_ctrls.bw_total::cpu00.itb.walker           15                       # Total bandwidth to/from this memory (bytes/s)
system.mem_ctrls.bw_total::cpu00.inst            1130                       # Total bandwidth to/from this memory (bytes/s)
system.mem_ctrls.bw_total::cpu00.data            2014                       # Total bandwidth to/from this memory (bytes/s)
system.mem_ctrls.bw_total::cpu01.dtb.walker           38                       # Total bandwidth to/from this memory (bytes/s)
system.mem_ctrls.bw_total::cpu01.itb.walker           11                       # Total bandwidth to/from this memory (bytes/s)
system.mem_ctrls.bw_total::cpu01.inst             428                       # Total bandwidth to/from this memory (bytes/s)
system.mem_ctrls.bw_total::cpu01.data            2826                       # Total bandwidth to/from this memory (bytes/s)
system.mem_ctrls.bw_total::cpu02.dtb.walker            5                       # Total bandwidth to/from this memory (bytes/s)
system.mem_ctrls.bw_total::cpu02.itb.walker            4                       # Total bandwidth to/from this memory (bytes/s)
system.mem_ctrls.bw_total::cpu02.inst             454                       # Total bandwidth to/from this memory (bytes/s)
system.mem_ctrls.bw_total::cpu02.data             677                       # Total bandwidth to/from this memory (bytes/s)
system.mem_ctrls.bw_total::cpu03.dtb.walker            7                       # Total bandwidth to/from this memory (bytes/s)
system.mem_ctrls.bw_total::cpu03.itb.walker            8                       # Total bandwidth to/from this memory (bytes/s)
system.mem_ctrls.bw_total::cpu03.inst             676                       # Total bandwidth to/from this memory (bytes/s)
system.mem_ctrls.bw_total::cpu03.data             993                       # Total bandwidth to/from this memory (bytes/s)
system.mem_ctrls.bw_total::cpu04.dtb.walker           15                       # Total bandwidth to/from this memory (bytes/s)
system.mem_ctrls.bw_total::cpu04.itb.walker            8                       # Total bandwidth to/from this memory (bytes/s)
system.mem_ctrls.bw_total::cpu04.inst             600                       # Total bandwidth to/from this memory (bytes/s)
system.mem_ctrls.bw_total::cpu04.data             602                       # Total bandwidth to/from this memory (bytes/s)
system.mem_ctrls.bw_total::cpu05.dtb.walker            5                       # Total bandwidth to/from this memory (bytes/s)
system.mem_ctrls.bw_total::cpu05.itb.walker            4                       # Total bandwidth to/from this memory (bytes/s)
system.mem_ctrls.bw_total::cpu05.inst             347                       # Total bandwidth to/from this memory (bytes/s)
system.mem_ctrls.bw_total::cpu05.data             555                       # Total bandwidth to/from this memory (bytes/s)
system.mem_ctrls.bw_total::cpu06.dtb.walker            2                       # Total bandwidth to/from this memory (bytes/s)
system.mem_ctrls.bw_total::cpu06.itb.walker            3                       # Total bandwidth to/from this memory (bytes/s)
system.mem_ctrls.bw_total::cpu06.inst             169                       # Total bandwidth to/from this memory (bytes/s)
system.mem_ctrls.bw_total::cpu06.data             184                       # Total bandwidth to/from this memory (bytes/s)
system.mem_ctrls.bw_total::cpu07.dtb.walker            2                       # Total bandwidth to/from this memory (bytes/s)
system.mem_ctrls.bw_total::cpu07.itb.walker            3                       # Total bandwidth to/from this memory (bytes/s)
system.mem_ctrls.bw_total::cpu07.inst             230                       # Total bandwidth to/from this memory (bytes/s)
system.mem_ctrls.bw_total::cpu07.data             302                       # Total bandwidth to/from this memory (bytes/s)
system.mem_ctrls.bw_total::cpu08.dtb.walker            3                       # Total bandwidth to/from this memory (bytes/s)
system.mem_ctrls.bw_total::cpu08.itb.walker            3                       # Total bandwidth to/from this memory (bytes/s)
system.mem_ctrls.bw_total::cpu08.inst             219                       # Total bandwidth to/from this memory (bytes/s)
system.mem_ctrls.bw_total::cpu08.data             297                       # Total bandwidth to/from this memory (bytes/s)
system.mem_ctrls.bw_total::cpu09.dtb.walker            1                       # Total bandwidth to/from this memory (bytes/s)
system.mem_ctrls.bw_total::cpu09.itb.walker            2                       # Total bandwidth to/from this memory (bytes/s)
system.mem_ctrls.bw_total::cpu09.inst             129                       # Total bandwidth to/from this memory (bytes/s)
system.mem_ctrls.bw_total::cpu09.data             200                       # Total bandwidth to/from this memory (bytes/s)
system.mem_ctrls.bw_total::cpu11.dtb.walker            2                       # Total bandwidth to/from this memory (bytes/s)
system.mem_ctrls.bw_total::cpu11.itb.walker            2                       # Total bandwidth to/from this memory (bytes/s)
system.mem_ctrls.bw_total::cpu11.inst             197                       # Total bandwidth to/from this memory (bytes/s)
system.mem_ctrls.bw_total::cpu11.data             211                       # Total bandwidth to/from this memory (bytes/s)
system.mem_ctrls.bw_total::cpu12.dtb.walker            2                       # Total bandwidth to/from this memory (bytes/s)
system.mem_ctrls.bw_total::cpu12.itb.walker            2                       # Total bandwidth to/from this memory (bytes/s)
system.mem_ctrls.bw_total::cpu12.inst             178                       # Total bandwidth to/from this memory (bytes/s)
system.mem_ctrls.bw_total::cpu12.data             178                       # Total bandwidth to/from this memory (bytes/s)
system.mem_ctrls.bw_total::cpu13.dtb.walker           11                       # Total bandwidth to/from this memory (bytes/s)
system.mem_ctrls.bw_total::cpu13.itb.walker            8                       # Total bandwidth to/from this memory (bytes/s)
system.mem_ctrls.bw_total::cpu13.inst             514                       # Total bandwidth to/from this memory (bytes/s)
system.mem_ctrls.bw_total::cpu13.data             532                       # Total bandwidth to/from this memory (bytes/s)
system.mem_ctrls.bw_total::cpu14.dtb.walker          237                       # Total bandwidth to/from this memory (bytes/s)
system.mem_ctrls.bw_total::cpu14.itb.walker          196                       # Total bandwidth to/from this memory (bytes/s)
system.mem_ctrls.bw_total::cpu14.inst            3143                       # Total bandwidth to/from this memory (bytes/s)
system.mem_ctrls.bw_total::cpu14.data            2655                       # Total bandwidth to/from this memory (bytes/s)
system.mem_ctrls.bw_total::cpu15.dtb.walker            6                       # Total bandwidth to/from this memory (bytes/s)
system.mem_ctrls.bw_total::cpu15.itb.walker            4                       # Total bandwidth to/from this memory (bytes/s)
system.mem_ctrls.bw_total::cpu15.inst             196                       # Total bandwidth to/from this memory (bytes/s)
system.mem_ctrls.bw_total::cpu15.data             109                       # Total bandwidth to/from this memory (bytes/s)
system.mem_ctrls.bw_total::total                42615                       # Total bandwidth to/from this memory (bytes/s)
system.mem_ctrls.readReqs                           0                       # Number of read requests accepted
system.mem_ctrls.writeReqs                          0                       # Number of write requests accepted
system.mem_ctrls.readBursts                         0                       # Number of DRAM read bursts, including those serviced by the write queue
system.mem_ctrls.writeBursts                        0                       # Number of DRAM write bursts, including those merged in the write queue
system.mem_ctrls.bytesReadDRAM                      0                       # Total number of bytes read from DRAM
system.mem_ctrls.bytesReadWrQ                       0                       # Total number of bytes read from write queue
system.mem_ctrls.bytesWritten                       0                       # Total number of bytes written to DRAM
system.mem_ctrls.bytesReadSys                       0                       # Total read bytes from the system interface side
system.mem_ctrls.bytesWrittenSys                    0                       # Total written bytes from the system interface side
system.mem_ctrls.servicedByWrQ                      0                       # Number of DRAM read bursts serviced by the write queue
system.mem_ctrls.mergedWrBursts                     0                       # Number of DRAM write bursts merged with an existing one
system.mem_ctrls.neitherReadNorWriteReqs            0                       # Number of requests that are neither read nor write
system.mem_ctrls.perBankRdBursts::0                 0                       # Per bank write bursts
system.mem_ctrls.perBankRdBursts::1                 0                       # Per bank write bursts
system.mem_ctrls.perBankRdBursts::2                 0                       # Per bank write bursts
system.mem_ctrls.perBankRdBursts::3                 0                       # Per bank write bursts
system.mem_ctrls.perBankRdBursts::4                 0                       # Per bank write bursts
system.mem_ctrls.perBankRdBursts::5                 0                       # Per bank write bursts
system.mem_ctrls.perBankRdBursts::6                 0                       # Per bank write bursts
system.mem_ctrls.perBankRdBursts::7                 0                       # Per bank write bursts
system.mem_ctrls.perBankRdBursts::8                 0                       # Per bank write bursts
system.mem_ctrls.perBankRdBursts::9                 0                       # Per bank write bursts
system.mem_ctrls.perBankRdBursts::10                0                       # Per bank write bursts
system.mem_ctrls.perBankRdBursts::11                0                       # Per bank write bursts
system.mem_ctrls.perBankRdBursts::12                0                       # Per bank write bursts
system.mem_ctrls.perBankRdBursts::13                0                       # Per bank write bursts
system.mem_ctrls.perBankRdBursts::14                0                       # Per bank write bursts
system.mem_ctrls.perBankRdBursts::15                0                       # Per bank write bursts
system.mem_ctrls.perBankRdBursts::16                0                       # Per bank write bursts
system.mem_ctrls.perBankRdBursts::17                0                       # Per bank write bursts
system.mem_ctrls.perBankRdBursts::18                0                       # Per bank write bursts
system.mem_ctrls.perBankRdBursts::19                0                       # Per bank write bursts
system.mem_ctrls.perBankRdBursts::20                0                       # Per bank write bursts
system.mem_ctrls.perBankRdBursts::21                0                       # Per bank write bursts
system.mem_ctrls.perBankRdBursts::22                0                       # Per bank write bursts
system.mem_ctrls.perBankRdBursts::23                0                       # Per bank write bursts
system.mem_ctrls.perBankRdBursts::24                0                       # Per bank write bursts
system.mem_ctrls.perBankRdBursts::25                0                       # Per bank write bursts
system.mem_ctrls.perBankRdBursts::26                0                       # Per bank write bursts
system.mem_ctrls.perBankRdBursts::27                0                       # Per bank write bursts
system.mem_ctrls.perBankRdBursts::28                0                       # Per bank write bursts
system.mem_ctrls.perBankRdBursts::29                0                       # Per bank write bursts
system.mem_ctrls.perBankRdBursts::30                0                       # Per bank write bursts
system.mem_ctrls.perBankRdBursts::31                0                       # Per bank write bursts
system.mem_ctrls.perBankWrBursts::0                 0                       # Per bank write bursts
system.mem_ctrls.perBankWrBursts::1                 0                       # Per bank write bursts
system.mem_ctrls.perBankWrBursts::2                 0                       # Per bank write bursts
system.mem_ctrls.perBankWrBursts::3                 0                       # Per bank write bursts
system.mem_ctrls.perBankWrBursts::4                 0                       # Per bank write bursts
system.mem_ctrls.perBankWrBursts::5                 0                       # Per bank write bursts
system.mem_ctrls.perBankWrBursts::6                 0                       # Per bank write bursts
system.mem_ctrls.perBankWrBursts::7                 0                       # Per bank write bursts
system.mem_ctrls.perBankWrBursts::8                 0                       # Per bank write bursts
system.mem_ctrls.perBankWrBursts::9                 0                       # Per bank write bursts
system.mem_ctrls.perBankWrBursts::10                0                       # Per bank write bursts
system.mem_ctrls.perBankWrBursts::11                0                       # Per bank write bursts
system.mem_ctrls.perBankWrBursts::12                0                       # Per bank write bursts
system.mem_ctrls.perBankWrBursts::13                0                       # Per bank write bursts
system.mem_ctrls.perBankWrBursts::14                0                       # Per bank write bursts
system.mem_ctrls.perBankWrBursts::15                0                       # Per bank write bursts
system.mem_ctrls.perBankWrBursts::16                0                       # Per bank write bursts
system.mem_ctrls.perBankWrBursts::17                0                       # Per bank write bursts
system.mem_ctrls.perBankWrBursts::18                0                       # Per bank write bursts
system.mem_ctrls.perBankWrBursts::19                0                       # Per bank write bursts
system.mem_ctrls.perBankWrBursts::20                0                       # Per bank write bursts
system.mem_ctrls.perBankWrBursts::21                0                       # Per bank write bursts
system.mem_ctrls.perBankWrBursts::22                0                       # Per bank write bursts
system.mem_ctrls.perBankWrBursts::23                0                       # Per bank write bursts
system.mem_ctrls.perBankWrBursts::24                0                       # Per bank write bursts
system.mem_ctrls.perBankWrBursts::25                0                       # Per bank write bursts
system.mem_ctrls.perBankWrBursts::26                0                       # Per bank write bursts
system.mem_ctrls.perBankWrBursts::27                0                       # Per bank write bursts
system.mem_ctrls.perBankWrBursts::28                0                       # Per bank write bursts
system.mem_ctrls.perBankWrBursts::29                0                       # Per bank write bursts
system.mem_ctrls.perBankWrBursts::30                0                       # Per bank write bursts
system.mem_ctrls.perBankWrBursts::31                0                       # Per bank write bursts
system.mem_ctrls.numRdRetry                         0                       # Number of times read queue was full causing retry
system.mem_ctrls.numWrRetry                         0                       # Number of times write queue was full causing retry
system.mem_ctrls.totGap                             0                       # Total gap between requests
system.mem_ctrls.readPktSize::0                     0                       # Read request sizes (log2)
system.mem_ctrls.readPktSize::1                     0                       # Read request sizes (log2)
system.mem_ctrls.readPktSize::2                     0                       # Read request sizes (log2)
system.mem_ctrls.readPktSize::3                     0                       # Read request sizes (log2)
system.mem_ctrls.readPktSize::4                     0                       # Read request sizes (log2)
system.mem_ctrls.readPktSize::5                     0                       # Read request sizes (log2)
system.mem_ctrls.readPktSize::6                     0                       # Read request sizes (log2)
system.mem_ctrls.writePktSize::0                    0                       # Write request sizes (log2)
system.mem_ctrls.writePktSize::1                    0                       # Write request sizes (log2)
system.mem_ctrls.writePktSize::2                    0                       # Write request sizes (log2)
system.mem_ctrls.writePktSize::3                    0                       # Write request sizes (log2)
system.mem_ctrls.writePktSize::4                    0                       # Write request sizes (log2)
system.mem_ctrls.writePktSize::5                    0                       # Write request sizes (log2)
system.mem_ctrls.writePktSize::6                    0                       # Write request sizes (log2)
system.mem_ctrls.rdQLenPdf::0                       0                       # What read queue length does an incoming req see
system.mem_ctrls.rdQLenPdf::1                       0                       # What read queue length does an incoming req see
system.mem_ctrls.rdQLenPdf::2                       0                       # What read queue length does an incoming req see
system.mem_ctrls.rdQLenPdf::3                       0                       # What read queue length does an incoming req see
system.mem_ctrls.rdQLenPdf::4                       0                       # What read queue length does an incoming req see
system.mem_ctrls.rdQLenPdf::5                       0                       # What read queue length does an incoming req see
system.mem_ctrls.rdQLenPdf::6                       0                       # What read queue length does an incoming req see
system.mem_ctrls.rdQLenPdf::7                       0                       # What read queue length does an incoming req see
system.mem_ctrls.rdQLenPdf::8                       0                       # What read queue length does an incoming req see
system.mem_ctrls.rdQLenPdf::9                       0                       # What read queue length does an incoming req see
system.mem_ctrls.rdQLenPdf::10                      0                       # What read queue length does an incoming req see
system.mem_ctrls.rdQLenPdf::11                      0                       # What read queue length does an incoming req see
system.mem_ctrls.rdQLenPdf::12                      0                       # What read queue length does an incoming req see
system.mem_ctrls.rdQLenPdf::13                      0                       # What read queue length does an incoming req see
system.mem_ctrls.rdQLenPdf::14                      0                       # What read queue length does an incoming req see
system.mem_ctrls.rdQLenPdf::15                      0                       # What read queue length does an incoming req see
system.mem_ctrls.rdQLenPdf::16                      0                       # What read queue length does an incoming req see
system.mem_ctrls.rdQLenPdf::17                      0                       # What read queue length does an incoming req see
system.mem_ctrls.rdQLenPdf::18                      0                       # What read queue length does an incoming req see
system.mem_ctrls.rdQLenPdf::19                      0                       # What read queue length does an incoming req see
system.mem_ctrls.rdQLenPdf::20                      0                       # What read queue length does an incoming req see
system.mem_ctrls.rdQLenPdf::21                      0                       # What read queue length does an incoming req see
system.mem_ctrls.rdQLenPdf::22                      0                       # What read queue length does an incoming req see
system.mem_ctrls.rdQLenPdf::23                      0                       # What read queue length does an incoming req see
system.mem_ctrls.rdQLenPdf::24                      0                       # What read queue length does an incoming req see
system.mem_ctrls.rdQLenPdf::25                      0                       # What read queue length does an incoming req see
system.mem_ctrls.rdQLenPdf::26                      0                       # What read queue length does an incoming req see
system.mem_ctrls.rdQLenPdf::27                      0                       # What read queue length does an incoming req see
system.mem_ctrls.rdQLenPdf::28                      0                       # What read queue length does an incoming req see
system.mem_ctrls.rdQLenPdf::29                      0                       # What read queue length does an incoming req see
system.mem_ctrls.rdQLenPdf::30                      0                       # What read queue length does an incoming req see
system.mem_ctrls.rdQLenPdf::31                      0                       # What read queue length does an incoming req see
system.mem_ctrls.rdQLenPdf::32                      0                       # What read queue length does an incoming req see
system.mem_ctrls.rdQLenPdf::33                      0                       # What read queue length does an incoming req see
system.mem_ctrls.rdQLenPdf::34                      0                       # What read queue length does an incoming req see
system.mem_ctrls.rdQLenPdf::35                      0                       # What read queue length does an incoming req see
system.mem_ctrls.rdQLenPdf::36                      0                       # What read queue length does an incoming req see
system.mem_ctrls.rdQLenPdf::37                      0                       # What read queue length does an incoming req see
system.mem_ctrls.rdQLenPdf::38                      0                       # What read queue length does an incoming req see
system.mem_ctrls.rdQLenPdf::39                      0                       # What read queue length does an incoming req see
system.mem_ctrls.rdQLenPdf::40                      0                       # What read queue length does an incoming req see
system.mem_ctrls.rdQLenPdf::41                      0                       # What read queue length does an incoming req see
system.mem_ctrls.rdQLenPdf::42                      0                       # What read queue length does an incoming req see
system.mem_ctrls.rdQLenPdf::43                      0                       # What read queue length does an incoming req see
system.mem_ctrls.rdQLenPdf::44                      0                       # What read queue length does an incoming req see
system.mem_ctrls.rdQLenPdf::45                      0                       # What read queue length does an incoming req see
system.mem_ctrls.rdQLenPdf::46                      0                       # What read queue length does an incoming req see
system.mem_ctrls.rdQLenPdf::47                      0                       # What read queue length does an incoming req see
system.mem_ctrls.rdQLenPdf::48                      0                       # What read queue length does an incoming req see
system.mem_ctrls.rdQLenPdf::49                      0                       # What read queue length does an incoming req see
system.mem_ctrls.rdQLenPdf::50                      0                       # What read queue length does an incoming req see
system.mem_ctrls.rdQLenPdf::51                      0                       # What read queue length does an incoming req see
system.mem_ctrls.rdQLenPdf::52                      0                       # What read queue length does an incoming req see
system.mem_ctrls.rdQLenPdf::53                      0                       # What read queue length does an incoming req see
system.mem_ctrls.rdQLenPdf::54                      0                       # What read queue length does an incoming req see
system.mem_ctrls.rdQLenPdf::55                      0                       # What read queue length does an incoming req see
system.mem_ctrls.rdQLenPdf::56                      0                       # What read queue length does an incoming req see
system.mem_ctrls.rdQLenPdf::57                      0                       # What read queue length does an incoming req see
system.mem_ctrls.rdQLenPdf::58                      0                       # What read queue length does an incoming req see
system.mem_ctrls.rdQLenPdf::59                      0                       # What read queue length does an incoming req see
system.mem_ctrls.rdQLenPdf::60                      0                       # What read queue length does an incoming req see
system.mem_ctrls.rdQLenPdf::61                      0                       # What read queue length does an incoming req see
system.mem_ctrls.rdQLenPdf::62                      0                       # What read queue length does an incoming req see
system.mem_ctrls.rdQLenPdf::63                      0                       # What read queue length does an incoming req see
system.mem_ctrls.wrQLenPdf::0                       0                       # What write queue length does an incoming req see
system.mem_ctrls.wrQLenPdf::1                       0                       # What write queue length does an incoming req see
system.mem_ctrls.wrQLenPdf::2                       0                       # What write queue length does an incoming req see
system.mem_ctrls.wrQLenPdf::3                       0                       # What write queue length does an incoming req see
system.mem_ctrls.wrQLenPdf::4                       0                       # What write queue length does an incoming req see
system.mem_ctrls.wrQLenPdf::5                       0                       # What write queue length does an incoming req see
system.mem_ctrls.wrQLenPdf::6                       0                       # What write queue length does an incoming req see
system.mem_ctrls.wrQLenPdf::7                       0                       # What write queue length does an incoming req see
system.mem_ctrls.wrQLenPdf::8                       0                       # What write queue length does an incoming req see
system.mem_ctrls.wrQLenPdf::9                       0                       # What write queue length does an incoming req see
system.mem_ctrls.wrQLenPdf::10                      0                       # What write queue length does an incoming req see
system.mem_ctrls.wrQLenPdf::11                      0                       # What write queue length does an incoming req see
system.mem_ctrls.wrQLenPdf::12                      0                       # What write queue length does an incoming req see
system.mem_ctrls.wrQLenPdf::13                      0                       # What write queue length does an incoming req see
system.mem_ctrls.wrQLenPdf::14                      0                       # What write queue length does an incoming req see
system.mem_ctrls.wrQLenPdf::15                      0                       # What write queue length does an incoming req see
system.mem_ctrls.wrQLenPdf::16                      0                       # What write queue length does an incoming req see
system.mem_ctrls.wrQLenPdf::17                      0                       # What write queue length does an incoming req see
system.mem_ctrls.wrQLenPdf::18                      0                       # What write queue length does an incoming req see
system.mem_ctrls.wrQLenPdf::19                      0                       # What write queue length does an incoming req see
system.mem_ctrls.wrQLenPdf::20                      0                       # What write queue length does an incoming req see
system.mem_ctrls.wrQLenPdf::21                      0                       # What write queue length does an incoming req see
system.mem_ctrls.wrQLenPdf::22                      0                       # What write queue length does an incoming req see
system.mem_ctrls.wrQLenPdf::23                      0                       # What write queue length does an incoming req see
system.mem_ctrls.wrQLenPdf::24                      0                       # What write queue length does an incoming req see
system.mem_ctrls.wrQLenPdf::25                      0                       # What write queue length does an incoming req see
system.mem_ctrls.wrQLenPdf::26                      0                       # What write queue length does an incoming req see
system.mem_ctrls.wrQLenPdf::27                      0                       # What write queue length does an incoming req see
system.mem_ctrls.wrQLenPdf::28                      0                       # What write queue length does an incoming req see
system.mem_ctrls.wrQLenPdf::29                      0                       # What write queue length does an incoming req see
system.mem_ctrls.wrQLenPdf::30                      0                       # What write queue length does an incoming req see
system.mem_ctrls.wrQLenPdf::31                      0                       # What write queue length does an incoming req see
system.mem_ctrls.wrQLenPdf::32                      0                       # What write queue length does an incoming req see
system.mem_ctrls.wrQLenPdf::33                      0                       # What write queue length does an incoming req see
system.mem_ctrls.wrQLenPdf::34                      0                       # What write queue length does an incoming req see
system.mem_ctrls.wrQLenPdf::35                      0                       # What write queue length does an incoming req see
system.mem_ctrls.wrQLenPdf::36                      0                       # What write queue length does an incoming req see
system.mem_ctrls.wrQLenPdf::37                      0                       # What write queue length does an incoming req see
system.mem_ctrls.wrQLenPdf::38                      0                       # What write queue length does an incoming req see
system.mem_ctrls.wrQLenPdf::39                      0                       # What write queue length does an incoming req see
system.mem_ctrls.wrQLenPdf::40                      0                       # What write queue length does an incoming req see
system.mem_ctrls.wrQLenPdf::41                      0                       # What write queue length does an incoming req see
system.mem_ctrls.wrQLenPdf::42                      0                       # What write queue length does an incoming req see
system.mem_ctrls.wrQLenPdf::43                      0                       # What write queue length does an incoming req see
system.mem_ctrls.wrQLenPdf::44                      0                       # What write queue length does an incoming req see
system.mem_ctrls.wrQLenPdf::45                      0                       # What write queue length does an incoming req see
system.mem_ctrls.wrQLenPdf::46                      0                       # What write queue length does an incoming req see
system.mem_ctrls.wrQLenPdf::47                      0                       # What write queue length does an incoming req see
system.mem_ctrls.wrQLenPdf::48                      0                       # What write queue length does an incoming req see
system.mem_ctrls.wrQLenPdf::49                      0                       # What write queue length does an incoming req see
system.mem_ctrls.wrQLenPdf::50                      0                       # What write queue length does an incoming req see
system.mem_ctrls.wrQLenPdf::51                      0                       # What write queue length does an incoming req see
system.mem_ctrls.wrQLenPdf::52                      0                       # What write queue length does an incoming req see
system.mem_ctrls.wrQLenPdf::53                      0                       # What write queue length does an incoming req see
system.mem_ctrls.wrQLenPdf::54                      0                       # What write queue length does an incoming req see
system.mem_ctrls.wrQLenPdf::55                      0                       # What write queue length does an incoming req see
system.mem_ctrls.wrQLenPdf::56                      0                       # What write queue length does an incoming req see
system.mem_ctrls.wrQLenPdf::57                      0                       # What write queue length does an incoming req see
system.mem_ctrls.wrQLenPdf::58                      0                       # What write queue length does an incoming req see
system.mem_ctrls.wrQLenPdf::59                      0                       # What write queue length does an incoming req see
system.mem_ctrls.wrQLenPdf::60                      0                       # What write queue length does an incoming req see
system.mem_ctrls.wrQLenPdf::61                      0                       # What write queue length does an incoming req see
system.mem_ctrls.wrQLenPdf::62                      0                       # What write queue length does an incoming req see
system.mem_ctrls.wrQLenPdf::63                      0                       # What write queue length does an incoming req see
system.mem_ctrls.wrQLenPdf::64                      0                       # What write queue length does an incoming req see
system.mem_ctrls.wrQLenPdf::65                      0                       # What write queue length does an incoming req see
system.mem_ctrls.wrQLenPdf::66                      0                       # What write queue length does an incoming req see
system.mem_ctrls.wrQLenPdf::67                      0                       # What write queue length does an incoming req see
system.mem_ctrls.wrQLenPdf::68                      0                       # What write queue length does an incoming req see
system.mem_ctrls.wrQLenPdf::69                      0                       # What write queue length does an incoming req see
system.mem_ctrls.wrQLenPdf::70                      0                       # What write queue length does an incoming req see
system.mem_ctrls.wrQLenPdf::71                      0                       # What write queue length does an incoming req see
system.mem_ctrls.wrQLenPdf::72                      0                       # What write queue length does an incoming req see
system.mem_ctrls.wrQLenPdf::73                      0                       # What write queue length does an incoming req see
system.mem_ctrls.wrQLenPdf::74                      0                       # What write queue length does an incoming req see
system.mem_ctrls.wrQLenPdf::75                      0                       # What write queue length does an incoming req see
system.mem_ctrls.wrQLenPdf::76                      0                       # What write queue length does an incoming req see
system.mem_ctrls.wrQLenPdf::77                      0                       # What write queue length does an incoming req see
system.mem_ctrls.wrQLenPdf::78                      0                       # What write queue length does an incoming req see
system.mem_ctrls.wrQLenPdf::79                      0                       # What write queue length does an incoming req see
system.mem_ctrls.wrQLenPdf::80                      0                       # What write queue length does an incoming req see
system.mem_ctrls.wrQLenPdf::81                      0                       # What write queue length does an incoming req see
system.mem_ctrls.wrQLenPdf::82                      0                       # What write queue length does an incoming req see
system.mem_ctrls.wrQLenPdf::83                      0                       # What write queue length does an incoming req see
system.mem_ctrls.wrQLenPdf::84                      0                       # What write queue length does an incoming req see
system.mem_ctrls.wrQLenPdf::85                      0                       # What write queue length does an incoming req see
system.mem_ctrls.wrQLenPdf::86                      0                       # What write queue length does an incoming req see
system.mem_ctrls.wrQLenPdf::87                      0                       # What write queue length does an incoming req see
system.mem_ctrls.wrQLenPdf::88                      0                       # What write queue length does an incoming req see
system.mem_ctrls.wrQLenPdf::89                      0                       # What write queue length does an incoming req see
system.mem_ctrls.wrQLenPdf::90                      0                       # What write queue length does an incoming req see
system.mem_ctrls.wrQLenPdf::91                      0                       # What write queue length does an incoming req see
system.mem_ctrls.wrQLenPdf::92                      0                       # What write queue length does an incoming req see
system.mem_ctrls.wrQLenPdf::93                      0                       # What write queue length does an incoming req see
system.mem_ctrls.wrQLenPdf::94                      0                       # What write queue length does an incoming req see
system.mem_ctrls.wrQLenPdf::95                      0                       # What write queue length does an incoming req see
system.mem_ctrls.wrQLenPdf::96                      0                       # What write queue length does an incoming req see
system.mem_ctrls.wrQLenPdf::97                      0                       # What write queue length does an incoming req see
system.mem_ctrls.wrQLenPdf::98                      0                       # What write queue length does an incoming req see
system.mem_ctrls.wrQLenPdf::99                      0                       # What write queue length does an incoming req see
system.mem_ctrls.wrQLenPdf::100                     0                       # What write queue length does an incoming req see
system.mem_ctrls.wrQLenPdf::101                     0                       # What write queue length does an incoming req see
system.mem_ctrls.wrQLenPdf::102                     0                       # What write queue length does an incoming req see
system.mem_ctrls.wrQLenPdf::103                     0                       # What write queue length does an incoming req see
system.mem_ctrls.wrQLenPdf::104                     0                       # What write queue length does an incoming req see
system.mem_ctrls.wrQLenPdf::105                     0                       # What write queue length does an incoming req see
system.mem_ctrls.wrQLenPdf::106                     0                       # What write queue length does an incoming req see
system.mem_ctrls.wrQLenPdf::107                     0                       # What write queue length does an incoming req see
system.mem_ctrls.wrQLenPdf::108                     0                       # What write queue length does an incoming req see
system.mem_ctrls.wrQLenPdf::109                     0                       # What write queue length does an incoming req see
system.mem_ctrls.wrQLenPdf::110                     0                       # What write queue length does an incoming req see
system.mem_ctrls.wrQLenPdf::111                     0                       # What write queue length does an incoming req see
system.mem_ctrls.wrQLenPdf::112                     0                       # What write queue length does an incoming req see
system.mem_ctrls.wrQLenPdf::113                     0                       # What write queue length does an incoming req see
system.mem_ctrls.wrQLenPdf::114                     0                       # What write queue length does an incoming req see
system.mem_ctrls.wrQLenPdf::115                     0                       # What write queue length does an incoming req see
system.mem_ctrls.wrQLenPdf::116                     0                       # What write queue length does an incoming req see
system.mem_ctrls.wrQLenPdf::117                     0                       # What write queue length does an incoming req see
system.mem_ctrls.wrQLenPdf::118                     0                       # What write queue length does an incoming req see
system.mem_ctrls.wrQLenPdf::119                     0                       # What write queue length does an incoming req see
system.mem_ctrls.wrQLenPdf::120                     0                       # What write queue length does an incoming req see
system.mem_ctrls.wrQLenPdf::121                     0                       # What write queue length does an incoming req see
system.mem_ctrls.wrQLenPdf::122                     0                       # What write queue length does an incoming req see
system.mem_ctrls.wrQLenPdf::123                     0                       # What write queue length does an incoming req see
system.mem_ctrls.wrQLenPdf::124                     0                       # What write queue length does an incoming req see
system.mem_ctrls.wrQLenPdf::125                     0                       # What write queue length does an incoming req see
system.mem_ctrls.wrQLenPdf::126                     0                       # What write queue length does an incoming req see
system.mem_ctrls.wrQLenPdf::127                     0                       # What write queue length does an incoming req see
system.mem_ctrls.totQLat                            0                       # Total ticks spent queuing
system.mem_ctrls.totMemAccLat                       0                       # Total ticks spent from burst creation until serviced by the DRAM
system.mem_ctrls.totBusLat                          0                       # Total ticks spent in databus transfers
system.mem_ctrls.avgQLat                          nan                       # Average queueing delay per DRAM burst
system.mem_ctrls.avgBusLat                        nan                       # Average bus latency per DRAM burst
system.mem_ctrls.avgMemAccLat                     nan                       # Average memory access latency per DRAM burst
system.mem_ctrls.avgRdBW                         0.00                       # Average DRAM read bandwidth in MiByte/s
system.mem_ctrls.avgWrBW                         0.00                       # Average achieved write bandwidth in MiByte/s
system.mem_ctrls.avgRdBWSys                      0.00                       # Average system read bandwidth in MiByte/s
system.mem_ctrls.avgWrBWSys                      0.00                       # Average system write bandwidth in MiByte/s
system.mem_ctrls.peakBW                      19207.00                       # Theoretical peak bandwidth in MiByte/s
system.mem_ctrls.busUtil                         0.00                       # Data bus utilization in percentage
system.mem_ctrls.busUtilRead                     0.00                       # Data bus utilization in percentage for reads
system.mem_ctrls.busUtilWrite                    0.00                       # Data bus utilization in percentage for writes
system.mem_ctrls.avgRdQLen                       0.00                       # Average read queue length when enqueuing
system.mem_ctrls.avgWrQLen                       0.00                       # Average write queue length when enqueuing
system.mem_ctrls.readRowHits                        0                       # Number of row buffer hits during reads
system.mem_ctrls.writeRowHits                       0                       # Number of row buffer hits during writes
system.mem_ctrls.readRowHitRate                   nan                       # Row buffer hit rate for reads
system.mem_ctrls.writeRowHitRate                  nan                       # Row buffer hit rate for writes
system.mem_ctrls.avgGap                           nan                       # Average gap between requests
system.mem_ctrls.pageHitRate                      nan                       # Row buffer hit rate, read and write combined
system.mem_ctrls_0.actEnergy                        0                       # Energy for activate commands per rank (pJ)
system.mem_ctrls_0.preEnergy                        0                       # Energy for precharge commands per rank (pJ)
system.mem_ctrls_0.readEnergy                       0                       # Energy for read commands per rank (pJ)
system.mem_ctrls_0.writeEnergy                      0                       # Energy for write commands per rank (pJ)
system.mem_ctrls_0.refreshEnergy                    0                       # Energy for refresh commands per rank (pJ)
system.mem_ctrls_0.actBackEnergy                    0                       # Energy for active background per rank (pJ)
system.mem_ctrls_0.preBackEnergy         315951587392128.187500                       # Energy for precharge background per rank (pJ)
system.mem_ctrls_0.actPowerDownEnergy               0                       # Energy for active power-down per rank (pJ)
system.mem_ctrls_0.prePowerDownEnergy               0                       # Energy for precharge power-down per rank (pJ)
system.mem_ctrls_0.selfRefreshEnergy                0                       # Energy for self refresh per rank (pJ)
system.mem_ctrls_0.totalEnergy           315951587392128.187500                       # Total energy per rank (pJ)
system.mem_ctrls_0.averagePower            163.200000                       # Core power per rank (mW)
system.mem_ctrls_0.totalIdleTime                    0                       # Total Idle time Per DRAM Rank
system.mem_ctrls_0.memoryStateTime::IDLE 8683100918703500                       # Time in different power states
system.mem_ctrls_0.memoryStateTime::REF             0                       # Time in different power states
system.mem_ctrls_0.memoryStateTime::SREF            0                       # Time in different power states
system.mem_ctrls_0.memoryStateTime::PRE_PDN            0                       # Time in different power states
system.mem_ctrls_0.memoryStateTime::ACT             0                       # Time in different power states
system.mem_ctrls_0.memoryStateTime::ACT_PDN            0                       # Time in different power states
system.mem_ctrls_1.actEnergy                        0                       # Energy for activate commands per rank (pJ)
system.mem_ctrls_1.preEnergy                        0                       # Energy for precharge commands per rank (pJ)
system.mem_ctrls_1.readEnergy                       0                       # Energy for read commands per rank (pJ)
system.mem_ctrls_1.writeEnergy                      0                       # Energy for write commands per rank (pJ)
system.mem_ctrls_1.refreshEnergy                    0                       # Energy for refresh commands per rank (pJ)
system.mem_ctrls_1.actBackEnergy                    0                       # Energy for active background per rank (pJ)
system.mem_ctrls_1.preBackEnergy         315951587392128.187500                       # Energy for precharge background per rank (pJ)
system.mem_ctrls_1.actPowerDownEnergy               0                       # Energy for active power-down per rank (pJ)
system.mem_ctrls_1.prePowerDownEnergy               0                       # Energy for precharge power-down per rank (pJ)
system.mem_ctrls_1.selfRefreshEnergy                0                       # Energy for self refresh per rank (pJ)
system.mem_ctrls_1.totalEnergy           315951587392128.187500                       # Total energy per rank (pJ)
system.mem_ctrls_1.averagePower            163.200000                       # Core power per rank (mW)
system.mem_ctrls_1.totalIdleTime                    0                       # Total Idle time Per DRAM Rank
system.mem_ctrls_1.memoryStateTime::IDLE 8683100918703500                       # Time in different power states
system.mem_ctrls_1.memoryStateTime::REF             0                       # Time in different power states
system.mem_ctrls_1.memoryStateTime::SREF            0                       # Time in different power states
system.mem_ctrls_1.memoryStateTime::PRE_PDN            0                       # Time in different power states
system.mem_ctrls_1.memoryStateTime::ACT             0                       # Time in different power states
system.mem_ctrls_1.memoryStateTime::ACT_PDN            0                       # Time in different power states
system.mem_ctrls_2.actEnergy                        0                       # Energy for activate commands per rank (pJ)
system.mem_ctrls_2.preEnergy                        0                       # Energy for precharge commands per rank (pJ)
system.mem_ctrls_2.readEnergy                       0                       # Energy for read commands per rank (pJ)
system.mem_ctrls_2.writeEnergy                      0                       # Energy for write commands per rank (pJ)
system.mem_ctrls_2.refreshEnergy                    0                       # Energy for refresh commands per rank (pJ)
system.mem_ctrls_2.actBackEnergy                    0                       # Energy for active background per rank (pJ)
system.mem_ctrls_2.preBackEnergy         315951587392128.187500                       # Energy for precharge background per rank (pJ)
system.mem_ctrls_2.actPowerDownEnergy               0                       # Energy for active power-down per rank (pJ)
system.mem_ctrls_2.prePowerDownEnergy               0                       # Energy for precharge power-down per rank (pJ)
system.mem_ctrls_2.selfRefreshEnergy                0                       # Energy for self refresh per rank (pJ)
[...]
system.tol2bus12.pkt_size_system.cpu12.dcache.mem_side::system.l212.cpu_side      1752264                       # Cumulative packet size per connected master and slave (bytes)
system.tol2bus12.pkt_size_system.cpu12.itb.walker.dma::system.l212.cpu_side        38352                       # Cumulative packet size per connected master and slave (bytes)
system.tol2bus12.pkt_size_system.cpu12.dtb.walker.dma::system.l212.cpu_side        10704                       # Cumulative packet size per connected master and slave (bytes)
system.tol2bus12.pkt_size::total              3922408                       # Cumulative packet size per connected master and slave (bytes)
system.tol2bus12.snoops                        109124                       # Total snoops (count)
system.tol2bus12.snoopTraffic                   77312                       # Total snoop traffic (bytes)
system.tol2bus12.snoop_fanout::samples         151764                       # Request fanout histogram
system.tol2bus12.snoop_fanout::mean          0.149588                       # Request fanout histogram
system.tol2bus12.snoop_fanout::stdev         0.356668                       # Request fanout histogram
system.tol2bus12.snoop_fanout::underflows            0      0.00%      0.00% # Request fanout histogram
system.tol2bus12.snoop_fanout::0               129062     85.04%     85.04% # Request fanout histogram
system.tol2bus12.snoop_fanout::1                22702     14.96%    100.00% # Request fanout histogram
system.tol2bus12.snoop_fanout::2                    0      0.00%    100.00% # Request fanout histogram
system.tol2bus12.snoop_fanout::overflows            0      0.00%    100.00% # Request fanout histogram
system.tol2bus12.snoop_fanout::min_value            0                       # Request fanout histogram
system.tol2bus12.snoop_fanout::max_value            1                       # Request fanout histogram
system.tol2bus12.snoop_fanout::total           151764                       # Request fanout histogram
system.tol2bus12.directResponses                    0                       # auxiliar stat for checking how reasonable wireless model is
system.tol2bus13.snoop_filter.tot_requests       823464                       # Total number of requests made to the snoop filter.
system.tol2bus13.snoop_filter.hit_single_requests       413034                       # Number of requests hitting in the snoop filter with a single holder of the requested data.
system.tol2bus13.snoop_filter.hit_multi_requests            6                       # Number of requests hitting in the snoop filter with multiple (>1) holders of the requested data.
system.tol2bus13.snoop_filter.tot_snoops        40483                       # Total number of snoops made to the snoop filter.
system.tol2bus13.snoop_filter.hit_single_snoops        40483                       # Number of snoops hitting in the snoop filter with a single holder of the requested data.
system.tol2bus13.snoop_filter.hit_multi_snoops            0                       # Number of snoops hitting in the snoop filter with multiple (>1) holders of the requested data.
system.tol2bus13.pwrStateResidencyTicks::UNDEFINED 8683100918703500                       # Cumulative time (in ticks) in various power states
system.tol2bus13.trans_dist::ReadReq           129470                       # Transaction distribution
system.tol2bus13.trans_dist::ReadResp          512552                       # Transaction distribution
system.tol2bus13.trans_dist::WriteReq             288                       # Transaction distribution
system.tol2bus13.trans_dist::WriteResp            288                       # Transaction distribution
system.tol2bus13.trans_dist::WritebackDirty        53805                       # Transaction distribution
system.tol2bus13.trans_dist::WritebackClean       288171                       # Transaction distribution
system.tol2bus13.trans_dist::CleanEvict         62538                       # Transaction distribution
system.tol2bus13.trans_dist::UpgradeReq          3466                       # Transaction distribution
system.tol2bus13.trans_dist::SCUpgradeReq         3092                       # Transaction distribution
system.tol2bus13.trans_dist::UpgradeResp         6558                       # Transaction distribution
system.tol2bus13.trans_dist::ReadExReq          19846                       # Transaction distribution
system.tol2bus13.trans_dist::ReadExResp         19846                       # Transaction distribution
system.tol2bus13.trans_dist::ReadCleanReq       288683                       # Transaction distribution
system.tol2bus13.trans_dist::ReadSharedReq        94399                       # Transaction distribution
system.tol2bus13.trans_dist::InvalidateReq         7522                       # Transaction distribution
system.tol2bus13.trans_dist::InvalidateResp         7522                       # Transaction distribution
system.tol2bus13.pkt_count_system.cpu13.icache.mem_side::system.l213.cpu_side       865537                       # Packet count per connected master and slave (bytes)
system.tol2bus13.pkt_count_system.cpu13.dcache.mem_side::system.l213.cpu_side       374799                       # Packet count per connected master and slave (bytes)
system.tol2bus13.pkt_count_system.cpu13.itb.walker.dma::system.l213.cpu_side       171048                       # Packet count per connected master and slave (bytes)
system.tol2bus13.pkt_count_system.cpu13.dtb.walker.dma::system.l213.cpu_side        86662                       # Packet count per connected master and slave (bytes)
system.tol2bus13.pkt_count::total             1498046                       # Packet count per connected master and slave (bytes)
system.tol2bus13.pkt_size_system.cpu13.icache.mem_side::system.l213.cpu_side     36918656                       # Cumulative packet size per connected master and slave (bytes)
system.tol2bus13.pkt_size_system.cpu13.dcache.mem_side::system.l213.cpu_side     10758812                       # Cumulative packet size per connected master and slave (bytes)
system.tol2bus13.pkt_size_system.cpu13.itb.walker.dma::system.l213.cpu_side       684192                       # Cumulative packet size per connected master and slave (bytes)
system.tol2bus13.pkt_size_system.cpu13.dtb.walker.dma::system.l213.cpu_side       346648                       # Cumulative packet size per connected master and slave (bytes)
system.tol2bus13.pkt_size::total             48708308                       # Cumulative packet size per connected master and slave (bytes)
system.tol2bus13.snoops                        188190                       # Total snoops (count)
system.tol2bus13.snoopTraffic                  239616                       # Total snoop traffic (bytes)
system.tol2bus13.snoop_fanout::samples         726669                       # Request fanout histogram
system.tol2bus13.snoop_fanout::mean          0.058391                       # Request fanout histogram
system.tol2bus13.snoop_fanout::stdev         0.234482                       # Request fanout histogram
system.tol2bus13.snoop_fanout::underflows            0      0.00%      0.00% # Request fanout histogram
system.tol2bus13.snoop_fanout::0               684238     94.16%     94.16% # Request fanout histogram
system.tol2bus13.snoop_fanout::1                42431      5.84%    100.00% # Request fanout histogram
system.tol2bus13.snoop_fanout::2                    0      0.00%    100.00% # Request fanout histogram
system.tol2bus13.snoop_fanout::overflows            0      0.00%    100.00% # Request fanout histogram
system.tol2bus13.snoop_fanout::min_value            0                       # Request fanout histogram
system.tol2bus13.snoop_fanout::max_value            1                       # Request fanout histogram
system.tol2bus13.snoop_fanout::total           726669                       # Request fanout histogram
system.tol2bus13.directResponses                    0                       # auxiliar stat for checking how reasonable wireless model is
system.tol2bus14.snoop_filter.tot_requests     11313672                       # Total number of requests made to the snoop filter.
system.tol2bus14.snoop_filter.hit_single_requests      5658154                       # Number of requests hitting in the snoop filter with a single holder of the requested data.
system.tol2bus14.snoop_filter.hit_multi_requests            0                       # Number of requests hitting in the snoop filter with multiple (>1) holders of the requested data.
system.tol2bus14.snoop_filter.tot_snoops       105283                       # Total number of snoops made to the snoop filter.
system.tol2bus14.snoop_filter.hit_single_snoops       105283                       # Number of snoops hitting in the snoop filter with a single holder of the requested data.
system.tol2bus14.snoop_filter.hit_multi_snoops            0                       # Number of snoops hitting in the snoop filter with multiple (>1) holders of the requested data.
system.tol2bus14.pwrStateResidencyTicks::UNDEFINED 8683100918703500                       # Cumulative time (in ticks) in various power states
system.tol2bus14.trans_dist::ReadReq          1560258                       # Transaction distribution
system.tol2bus14.trans_dist::ReadResp         6940003                       # Transaction distribution
system.tol2bus14.trans_dist::WriteReq            1117                       # Transaction distribution
system.tol2bus14.trans_dist::WriteResp           1117                       # Transaction distribution
system.tol2bus14.trans_dist::WritebackDirty       639057                       # Transaction distribution
system.tol2bus14.trans_dist::WritebackClean      4423676                       # Transaction distribution
system.tol2bus14.trans_dist::CleanEvict        573662                       # Transaction distribution
system.tol2bus14.trans_dist::UpgradeReq         12141                       # Transaction distribution
system.tol2bus14.trans_dist::SCUpgradeReq         9206                       # Transaction distribution
system.tol2bus14.trans_dist::UpgradeResp        21347                       # Transaction distribution
system.tol2bus14.trans_dist::ReadExReq         211804                       # Transaction distribution
system.tol2bus14.trans_dist::ReadExResp        211804                       # Transaction distribution
system.tol2bus14.trans_dist::ReadCleanReq      4424188                       # Transaction distribution
system.tol2bus14.trans_dist::ReadSharedReq       955557                       # Transaction distribution
system.tol2bus14.trans_dist::InvalidateReq        64381                       # Transaction distribution
system.tol2bus14.trans_dist::InvalidateResp        64381                       # Transaction distribution
system.tol2bus14.pkt_count_system.cpu14.icache.mem_side::system.l214.cpu_side     13272052                       # Packet count per connected master and slave (bytes)
system.tol2bus14.pkt_count_system.cpu14.dcache.mem_side::system.l214.cpu_side      3722955                       # Packet count per connected master and slave (bytes)
system.tol2bus14.pkt_count_system.cpu14.itb.walker.dma::system.l214.cpu_side      2681892                       # Packet count per connected master and slave (bytes)
system.tol2bus14.pkt_count_system.cpu14.dtb.walker.dma::system.l214.cpu_side       436800                       # Packet count per connected master and slave (bytes)
system.tol2bus14.pkt_count::total            20113699                       # Packet count per connected master and slave (bytes)
system.tol2bus14.pkt_size_system.cpu14.icache.mem_side::system.l214.cpu_side    566263296                       # Cumulative packet size per connected master and slave (bytes)
system.tol2bus14.pkt_size_system.cpu14.dcache.mem_side::system.l214.cpu_side    115618868                       # Cumulative packet size per connected master and slave (bytes)
system.tol2bus14.pkt_size_system.cpu14.itb.walker.dma::system.l214.cpu_side     10727568                       # Cumulative packet size per connected master and slave (bytes)
system.tol2bus14.pkt_size_system.cpu14.dtb.walker.dma::system.l214.cpu_side      1747200                       # Cumulative packet size per connected master and slave (bytes)
system.tol2bus14.pkt_size::total            694356932                       # Cumulative packet size per connected master and slave (bytes)
system.tol2bus14.snoops                        394365                       # Total snoops (count)
system.tol2bus14.snoopTraffic                 3096640                       # Total snoop traffic (bytes)
system.tol2bus14.snoop_fanout::samples        7598373                       # Request fanout histogram
system.tol2bus14.snoop_fanout::mean          0.013856                       # Request fanout histogram
system.tol2bus14.snoop_fanout::stdev         0.116893                       # Request fanout histogram
system.tol2bus14.snoop_fanout::underflows            0      0.00%      0.00% # Request fanout histogram
system.tol2bus14.snoop_fanout::0              7493090     98.61%     98.61% # Request fanout histogram
system.tol2bus14.snoop_fanout::1               105283      1.39%    100.00% # Request fanout histogram
system.tol2bus14.snoop_fanout::2                    0      0.00%    100.00% # Request fanout histogram
system.tol2bus14.snoop_fanout::overflows            0      0.00%    100.00% # Request fanout histogram
system.tol2bus14.snoop_fanout::min_value            0                       # Request fanout histogram
system.tol2bus14.snoop_fanout::max_value            1                       # Request fanout histogram
system.tol2bus14.snoop_fanout::total          7598373                       # Request fanout histogram
system.tol2bus14.directResponses                    0                       # auxiliar stat for checking how reasonable wireless model is
system.tol2bus15.snoop_filter.tot_requests       518112                       # Total number of requests made to the snoop filter.
system.tol2bus15.snoop_filter.hit_single_requests       258770                       # Number of requests hitting in the snoop filter with a single holder of the requested data.
system.tol2bus15.snoop_filter.hit_multi_requests            0                       # Number of requests hitting in the snoop filter with multiple (>1) holders of the requested data.
system.tol2bus15.snoop_filter.tot_snoops        41430                       # Total number of snoops made to the snoop filter.
system.tol2bus15.snoop_filter.hit_single_snoops        41430                       # Number of snoops hitting in the snoop filter with a single holder of the requested data.
system.tol2bus15.snoop_filter.hit_multi_snoops            0                       # Number of snoops hitting in the snoop filter with multiple (>1) holders of the requested data.
system.tol2bus15.pwrStateResidencyTicks::UNDEFINED 8683100918703500                       # Cumulative time (in ticks) in various power states
system.tol2bus15.trans_dist::ReadReq            86665                       # Transaction distribution
system.tol2bus15.trans_dist::ReadResp          332299                       # Transaction distribution
system.tol2bus15.trans_dist::WriteReq             228                       # Transaction distribution
system.tol2bus15.trans_dist::WriteResp            228                       # Transaction distribution
system.tol2bus15.trans_dist::WritebackDirty        27051                       # Transaction distribution
system.tol2bus15.trans_dist::WritebackClean       190514                       # Transaction distribution
system.tol2bus15.trans_dist::CleanEvict         36400                       # Transaction distribution
system.tol2bus15.trans_dist::UpgradeReq          2668                       # Transaction distribution
system.tol2bus15.trans_dist::SCUpgradeReq         2119                       # Transaction distribution
system.tol2bus15.trans_dist::UpgradeResp         4787                       # Transaction distribution
system.tol2bus15.trans_dist::ReadExReq          10137                       # Transaction distribution
system.tol2bus15.trans_dist::ReadExResp         10137                       # Transaction distribution
system.tol2bus15.trans_dist::ReadCleanReq       191026                       # Transaction distribution
system.tol2bus15.trans_dist::ReadSharedReq        54608                       # Transaction distribution
system.tol2bus15.trans_dist::InvalidateReq         3589                       # Transaction distribution
system.tol2bus15.trans_dist::InvalidateResp         3589                       # Transaction distribution
system.tol2bus15.pkt_count_system.cpu15.icache.mem_side::system.l215.cpu_side       572566                       # Packet count per connected master and slave (bytes)
system.tol2bus15.pkt_count_system.cpu15.dcache.mem_side::system.l215.cpu_side       211143                       # Packet count per connected master and slave (bytes)
system.tol2bus15.pkt_count_system.cpu15.itb.walker.dma::system.l215.cpu_side       116178                       # Packet count per connected master and slave (bytes)
system.tol2bus15.pkt_count_system.cpu15.dtb.walker.dma::system.l215.cpu_side        56158                       # Packet count per connected master and slave (bytes)
system.tol2bus15.pkt_count::total              956045                       # Packet count per connected master and slave (bytes)
system.tol2bus15.pkt_size_system.cpu15.icache.mem_side::system.l215.cpu_side     24418560                       # Cumulative packet size per connected master and slave (bytes)
system.tol2bus15.pkt_size_system.cpu15.dcache.mem_side::system.l215.cpu_side      5877844                       # Cumulative packet size per connected master and slave (bytes)
system.tol2bus15.pkt_size_system.cpu15.itb.walker.dma::system.l215.cpu_side       464712                       # Cumulative packet size per connected master and slave (bytes)
system.tol2bus15.pkt_size_system.cpu15.dtb.walker.dma::system.l215.cpu_side       224632                       # Cumulative packet size per connected master and slave (bytes)
system.tol2bus15.pkt_size::total             30985748                       # Cumulative packet size per connected master and slave (bytes)
system.tol2bus15.snoops                        175990                       # Total snoops (count)
system.tol2bus15.snoopTraffic                   43584                       # Total snoop traffic (bytes)
system.tol2bus15.snoop_fanout::samples         518904                       # Request fanout histogram
system.tol2bus15.snoop_fanout::mean          0.079841                       # Request fanout histogram
system.tol2bus15.snoop_fanout::stdev         0.271048                       # Request fanout histogram
system.tol2bus15.snoop_fanout::underflows            0      0.00%      0.00% # Request fanout histogram
system.tol2bus15.snoop_fanout::0               477474     92.02%     92.02% # Request fanout histogram
system.tol2bus15.snoop_fanout::1                41430      7.98%    100.00% # Request fanout histogram
system.tol2bus15.snoop_fanout::2                    0      0.00%    100.00% # Request fanout histogram
system.tol2bus15.snoop_fanout::overflows            0      0.00%    100.00% # Request fanout histogram
system.tol2bus15.snoop_fanout::min_value            0                       # Request fanout histogram
system.tol2bus15.snoop_fanout::max_value            1                       # Request fanout histogram
system.tol2bus15.snoop_fanout::total           518904                       # Request fanout histogram
system.tol2bus15.directResponses                    0                       # auxiliar stat for checking how reasonable wireless model is

---------- End Simulation Statistics   ----------
