
---------- Begin Simulation Statistics ----------
sim_seconds                              44890.513857                       # Number of seconds simulated
sim_ticks                                44890513856577504                       # Number of ticks simulated
final_tick                               51637636911358496                       # Number of ticks from beginning of simulation (restored from checkpoints and never reset)
sim_freq                                 1000000000000                       # Frequency of simulated ticks
host_inst_rate                                2063750                       # Simulator instruction rate (inst/s)
host_op_rate                                  2349739                       # Simulator op (including micro ops) rate (op/s)
host_tick_rate                           5502607311487                       # Simulator tick rate (ticks/s)
host_mem_usage                                5046592                       # Number of bytes of host memory used
host_seconds                                  8158.04                       # Real time elapsed on the host
sim_insts                                 16836164062                       # Number of instructions simulated
sim_ops                                   19169276396                       # Number of ops (including micro ops) simulated
system.voltage_domain.voltage                       1                       # Voltage in Volts
system.clk_domain.clock                           625                       # Clock period in ticks
system.bootmem.pwrStateResidencyTicks::UNDEFINED 51637636911358496                       # Cumulative time (in ticks) in various power states
system.mem_ctrls.pwrStateResidencyTicks::UNDEFINED 51637636911358496                       # Cumulative time (in ticks) in various power states
system.mem_ctrls.bytes_read::cpu00.dtb.walker      5196864                       # Number of bytes read from this memory
system.mem_ctrls.bytes_read::cpu00.itb.walker       194560                       # Number of bytes read from this memory
system.mem_ctrls.bytes_read::cpu00.inst       9465152                       # Number of bytes read from this memory
system.mem_ctrls.bytes_read::cpu00.data     251669760                       # Number of bytes read from this memory
system.mem_ctrls.bytes_read::cpu01.dtb.walker       144064                       # Number of bytes read from this memory
system.mem_ctrls.bytes_read::cpu01.itb.walker        45312                       # Number of bytes read from this memory
system.mem_ctrls.bytes_read::cpu01.inst       4672704                       # Number of bytes read from this memory
system.mem_ctrls.bytes_read::cpu01.data       8400768                       # Number of bytes read from this memory
system.mem_ctrls.bytes_read::cpu02.dtb.walker       684544                       # Number of bytes read from this memory
system.mem_ctrls.bytes_read::cpu02.itb.walker       464512                       # Number of bytes read from this memory
system.mem_ctrls.bytes_read::cpu02.inst      21461184                       # Number of bytes read from this memory
system.mem_ctrls.bytes_read::cpu02.data      26272960                       # Number of bytes read from this memory
system.mem_ctrls.bytes_read::cpu03.dtb.walker        58880                       # Number of bytes read from this memory
system.mem_ctrls.bytes_read::cpu03.itb.walker        15168                       # Number of bytes read from this memory
system.mem_ctrls.bytes_read::cpu03.inst       2238144                       # Number of bytes read from this memory
system.mem_ctrls.bytes_read::cpu03.data       8122112                       # Number of bytes read from this memory
system.mem_ctrls.bytes_read::cpu04.dtb.walker        85184                       # Number of bytes read from this memory
system.mem_ctrls.bytes_read::cpu04.itb.walker        17728                       # Number of bytes read from this memory
system.mem_ctrls.bytes_read::cpu04.inst       1620608                       # Number of bytes read from this memory
system.mem_ctrls.bytes_read::cpu04.data       6544256                       # Number of bytes read from this memory
system.mem_ctrls.bytes_read::cpu05.dtb.walker        87104                       # Number of bytes read from this memory
system.mem_ctrls.bytes_read::cpu05.itb.walker        30080                       # Number of bytes read from this memory
system.mem_ctrls.bytes_read::cpu05.inst       2387200                       # Number of bytes read from this memory
system.mem_ctrls.bytes_read::cpu05.data       9473152                       # Number of bytes read from this memory
system.mem_ctrls.bytes_read::cpu06.dtb.walker       106368                       # Number of bytes read from this memory
system.mem_ctrls.bytes_read::cpu06.itb.walker        36224                       # Number of bytes read from this memory
system.mem_ctrls.bytes_read::cpu06.inst       3353280                       # Number of bytes read from this memory
system.mem_ctrls.bytes_read::cpu06.data       9560896                       # Number of bytes read from this memory
system.mem_ctrls.bytes_read::cpu07.dtb.walker        75840                       # Number of bytes read from this memory
system.mem_ctrls.bytes_read::cpu07.itb.walker        45184                       # Number of bytes read from this memory
system.mem_ctrls.bytes_read::cpu07.inst       2166272                       # Number of bytes read from this memory
system.mem_ctrls.bytes_read::cpu07.data       9741632                       # Number of bytes read from this memory
system.mem_ctrls.bytes_read::cpu08.dtb.walker        35328                       # Number of bytes read from this memory
system.mem_ctrls.bytes_read::cpu08.itb.walker        20544                       # Number of bytes read from this memory
system.mem_ctrls.bytes_read::cpu08.inst       1722432                       # Number of bytes read from this memory
system.mem_ctrls.bytes_read::cpu08.data       6219392                       # Number of bytes read from this memory
system.mem_ctrls.bytes_read::cpu09.dtb.walker        94528                       # Number of bytes read from this memory
system.mem_ctrls.bytes_read::cpu09.itb.walker        46976                       # Number of bytes read from this memory
system.mem_ctrls.bytes_read::cpu09.inst       2320000                       # Number of bytes read from this memory
system.mem_ctrls.bytes_read::cpu09.data       7206464                       # Number of bytes read from this memory
system.mem_ctrls.bytes_read::cpu10.dtb.walker        67904                       # Number of bytes read from this memory
system.mem_ctrls.bytes_read::cpu10.itb.walker        15424                       # Number of bytes read from this memory
system.mem_ctrls.bytes_read::cpu10.inst       1280320                       # Number of bytes read from this memory
system.mem_ctrls.bytes_read::cpu10.data       6730176                       # Number of bytes read from this memory
system.mem_ctrls.bytes_read::cpu11.dtb.walker       118400                       # Number of bytes read from this memory
system.mem_ctrls.bytes_read::cpu11.itb.walker        51008                       # Number of bytes read from this memory
system.mem_ctrls.bytes_read::cpu11.inst       2302528                       # Number of bytes read from this memory
system.mem_ctrls.bytes_read::cpu11.data      10695424                       # Number of bytes read from this memory
system.mem_ctrls.bytes_read::cpu12.dtb.walker        91776                       # Number of bytes read from this memory
system.mem_ctrls.bytes_read::cpu12.itb.walker        31040                       # Number of bytes read from this memory
system.mem_ctrls.bytes_read::cpu12.inst       1713024                       # Number of bytes read from this memory
system.mem_ctrls.bytes_read::cpu12.data       5996672                       # Number of bytes read from this memory
system.mem_ctrls.bytes_read::cpu13.dtb.walker       249536                       # Number of bytes read from this memory
system.mem_ctrls.bytes_read::cpu13.itb.walker        61184                       # Number of bytes read from this memory
system.mem_ctrls.bytes_read::cpu13.inst       7320896                       # Number of bytes read from this memory
system.mem_ctrls.bytes_read::cpu13.data       9129408                       # Number of bytes read from this memory
system.mem_ctrls.bytes_read::cpu14.dtb.walker      9958400                       # Number of bytes read from this memory
system.mem_ctrls.bytes_read::cpu14.itb.walker      6942784                       # Number of bytes read from this memory
system.mem_ctrls.bytes_read::cpu14.inst     140240640                       # Number of bytes read from this memory
system.mem_ctrls.bytes_read::cpu14.data     115666112                       # Number of bytes read from this memory
system.mem_ctrls.bytes_read::cpu15.dtb.walker       387584                       # Number of bytes read from this memory
system.mem_ctrls.bytes_read::cpu15.itb.walker        77120                       # Number of bytes read from this memory
system.mem_ctrls.bytes_read::cpu15.inst      12128384                       # Number of bytes read from this memory
system.mem_ctrls.bytes_read::cpu15.data      13294848                       # Number of bytes read from this memory
system.mem_ctrls.bytes_read::pci_ide               64                       # Number of bytes read from this memory
system.mem_ctrls.bytes_read::total          746654016                       # Number of bytes read from this memory
system.mem_ctrls.bytes_inst_read::cpu00.inst      9465152                       # Number of instructions bytes read from this memory
system.mem_ctrls.bytes_inst_read::cpu01.inst      4672704                       # Number of instructions bytes read from this memory
system.mem_ctrls.bytes_inst_read::cpu02.inst     21461184                       # Number of instructions bytes read from this memory
system.mem_ctrls.bytes_inst_read::cpu03.inst      2238144                       # Number of instructions bytes read from this memory
system.mem_ctrls.bytes_inst_read::cpu04.inst      1620608                       # Number of instructions bytes read from this memory
system.mem_ctrls.bytes_inst_read::cpu05.inst      2387200                       # Number of instructions bytes read from this memory
system.mem_ctrls.bytes_inst_read::cpu06.inst      3353280                       # Number of instructions bytes read from this memory
system.mem_ctrls.bytes_inst_read::cpu07.inst      2166272                       # Number of instructions bytes read from this memory
system.mem_ctrls.bytes_inst_read::cpu08.inst      1722432                       # Number of instructions bytes read from this memory
system.mem_ctrls.bytes_inst_read::cpu09.inst      2320000                       # Number of instructions bytes read from this memory
system.mem_ctrls.bytes_inst_read::cpu10.inst      1280320                       # Number of instructions bytes read from this memory
system.mem_ctrls.bytes_inst_read::cpu11.inst      2302528                       # Number of instructions bytes read from this memory
system.mem_ctrls.bytes_inst_read::cpu12.inst      1713024                       # Number of instructions bytes read from this memory
system.mem_ctrls.bytes_inst_read::cpu13.inst      7320896                       # Number of instructions bytes read from this memory
system.mem_ctrls.bytes_inst_read::cpu14.inst    140240640                       # Number of instructions bytes read from this memory
system.mem_ctrls.bytes_inst_read::cpu15.inst     12128384                       # Number of instructions bytes read from this memory
system.mem_ctrls.bytes_inst_read::total     216392768                       # Number of instructions bytes read from this memory
system.mem_ctrls.bytes_written::writebacks    275553984                       # Number of bytes written to this memory
system.mem_ctrls.bytes_written::total       275553984                       # Number of bytes written to this memory
system.mem_ctrls.num_reads::cpu00.dtb.walker        81201                       # Number of read requests responded to by this memory
system.mem_ctrls.num_reads::cpu00.itb.walker         3040                       # Number of read requests responded to by this memory
system.mem_ctrls.num_reads::cpu00.inst         147893                       # Number of read requests responded to by this memory
system.mem_ctrls.num_reads::cpu00.data        3932340                       # Number of read requests responded to by this memory
system.mem_ctrls.num_reads::cpu01.dtb.walker         2251                       # Number of read requests responded to by this memory
system.mem_ctrls.num_reads::cpu01.itb.walker          708                       # Number of read requests responded to by this memory
system.mem_ctrls.num_reads::cpu01.inst          73011                       # Number of read requests responded to by this memory
system.mem_ctrls.num_reads::cpu01.data         131262                       # Number of read requests responded to by this memory
system.mem_ctrls.num_reads::cpu02.dtb.walker        10696                       # Number of read requests responded to by this memory
system.mem_ctrls.num_reads::cpu02.itb.walker         7258                       # Number of read requests responded to by this memory
system.mem_ctrls.num_reads::cpu02.inst         335331                       # Number of read requests responded to by this memory
system.mem_ctrls.num_reads::cpu02.data         410515                       # Number of read requests responded to by this memory
system.mem_ctrls.num_reads::cpu03.dtb.walker          920                       # Number of read requests responded to by this memory
system.mem_ctrls.num_reads::cpu03.itb.walker          237                       # Number of read requests responded to by this memory
system.mem_ctrls.num_reads::cpu03.inst          34971                       # Number of read requests responded to by this memory
system.mem_ctrls.num_reads::cpu03.data         126908                       # Number of read requests responded to by this memory
system.mem_ctrls.num_reads::cpu04.dtb.walker         1331                       # Number of read requests responded to by this memory
system.mem_ctrls.num_reads::cpu04.itb.walker          277                       # Number of read requests responded to by this memory
system.mem_ctrls.num_reads::cpu04.inst          25322                       # Number of read requests responded to by this memory
system.mem_ctrls.num_reads::cpu04.data         102254                       # Number of read requests responded to by this memory
system.mem_ctrls.num_reads::cpu05.dtb.walker         1361                       # Number of read requests responded to by this memory
system.mem_ctrls.num_reads::cpu05.itb.walker          470                       # Number of read requests responded to by this memory
system.mem_ctrls.num_reads::cpu05.inst          37300                       # Number of read requests responded to by this memory
system.mem_ctrls.num_reads::cpu05.data         148018                       # Number of read requests responded to by this memory
system.mem_ctrls.num_reads::cpu06.dtb.walker         1662                       # Number of read requests responded to by this memory
system.mem_ctrls.num_reads::cpu06.itb.walker          566                       # Number of read requests responded to by this memory
system.mem_ctrls.num_reads::cpu06.inst          52395                       # Number of read requests responded to by this memory
system.mem_ctrls.num_reads::cpu06.data         149389                       # Number of read requests responded to by this memory
system.mem_ctrls.num_reads::cpu07.dtb.walker         1185                       # Number of read requests responded to by this memory
system.mem_ctrls.num_reads::cpu07.itb.walker          706                       # Number of read requests responded to by this memory
system.mem_ctrls.num_reads::cpu07.inst          33848                       # Number of read requests responded to by this memory
system.mem_ctrls.num_reads::cpu07.data         152213                       # Number of read requests responded to by this memory
system.mem_ctrls.num_reads::cpu08.dtb.walker          552                       # Number of read requests responded to by this memory
system.mem_ctrls.num_reads::cpu08.itb.walker          321                       # Number of read requests responded to by this memory
system.mem_ctrls.num_reads::cpu08.inst          26913                       # Number of read requests responded to by this memory
system.mem_ctrls.num_reads::cpu08.data          97178                       # Number of read requests responded to by this memory
system.mem_ctrls.num_reads::cpu09.dtb.walker         1477                       # Number of read requests responded to by this memory
system.mem_ctrls.num_reads::cpu09.itb.walker          734                       # Number of read requests responded to by this memory
system.mem_ctrls.num_reads::cpu09.inst          36250                       # Number of read requests responded to by this memory
system.mem_ctrls.num_reads::cpu09.data         112601                       # Number of read requests responded to by this memory
system.mem_ctrls.num_reads::cpu10.dtb.walker         1061                       # Number of read requests responded to by this memory
system.mem_ctrls.num_reads::cpu10.itb.walker          241                       # Number of read requests responded to by this memory
system.mem_ctrls.num_reads::cpu10.inst          20005                       # Number of read requests responded to by this memory
system.mem_ctrls.num_reads::cpu10.data         105159                       # Number of read requests responded to by this memory
system.mem_ctrls.num_reads::cpu11.dtb.walker         1850                       # Number of read requests responded to by this memory
system.mem_ctrls.num_reads::cpu11.itb.walker          797                       # Number of read requests responded to by this memory
system.mem_ctrls.num_reads::cpu11.inst          35977                       # Number of read requests responded to by this memory
system.mem_ctrls.num_reads::cpu11.data         167116                       # Number of read requests responded to by this memory
system.mem_ctrls.num_reads::cpu12.dtb.walker         1434                       # Number of read requests responded to by this memory
system.mem_ctrls.num_reads::cpu12.itb.walker          485                       # Number of read requests responded to by this memory
system.mem_ctrls.num_reads::cpu12.inst          26766                       # Number of read requests responded to by this memory
system.mem_ctrls.num_reads::cpu12.data          93698                       # Number of read requests responded to by this memory
system.mem_ctrls.num_reads::cpu13.dtb.walker         3899                       # Number of read requests responded to by this memory
system.mem_ctrls.num_reads::cpu13.itb.walker          956                       # Number of read requests responded to by this memory
system.mem_ctrls.num_reads::cpu13.inst         114389                       # Number of read requests responded to by this memory
system.mem_ctrls.num_reads::cpu13.data         142647                       # Number of read requests responded to by this memory
system.mem_ctrls.num_reads::cpu14.dtb.walker       155600                       # Number of read requests responded to by this memory
system.mem_ctrls.num_reads::cpu14.itb.walker       108481                       # Number of read requests responded to by this memory
system.mem_ctrls.num_reads::cpu14.inst        2191260                       # Number of read requests responded to by this memory
system.mem_ctrls.num_reads::cpu14.data        1807283                       # Number of read requests responded to by this memory
system.mem_ctrls.num_reads::cpu15.dtb.walker         6056                       # Number of read requests responded to by this memory
system.mem_ctrls.num_reads::cpu15.itb.walker         1205                       # Number of read requests responded to by this memory
system.mem_ctrls.num_reads::cpu15.inst         189506                       # Number of read requests responded to by this memory
system.mem_ctrls.num_reads::cpu15.data         207732                       # Number of read requests responded to by this memory
system.mem_ctrls.num_reads::pci_ide                 1                       # Number of read requests responded to by this memory
system.mem_ctrls.num_reads::total            11666469                       # Number of read requests responded to by this memory
system.mem_ctrls.num_writes::writebacks       4305531                       # Number of write requests responded to by this memory
system.mem_ctrls.num_writes::total            4305531                       # Number of write requests responded to by this memory
system.mem_ctrls.bw_read::cpu00.dtb.walker          116                       # Total read bandwidth from this memory (bytes/s)
system.mem_ctrls.bw_read::cpu00.itb.walker            4                       # Total read bandwidth from this memory (bytes/s)
system.mem_ctrls.bw_read::cpu00.inst              211                       # Total read bandwidth from this memory (bytes/s)
system.mem_ctrls.bw_read::cpu00.data             5606                       # Total read bandwidth from this memory (bytes/s)
system.mem_ctrls.bw_read::cpu01.dtb.walker            3                       # Total read bandwidth from this memory (bytes/s)
system.mem_ctrls.bw_read::cpu01.itb.walker            1                       # Total read bandwidth from this memory (bytes/s)
system.mem_ctrls.bw_read::cpu01.inst              104                       # Total read bandwidth from this memory (bytes/s)
system.mem_ctrls.bw_read::cpu01.data              187                       # Total read bandwidth from this memory (bytes/s)
system.mem_ctrls.bw_read::cpu02.dtb.walker           15                       # Total read bandwidth from this memory (bytes/s)
system.mem_ctrls.bw_read::cpu02.itb.walker           10                       # Total read bandwidth from this memory (bytes/s)
system.mem_ctrls.bw_read::cpu02.inst              478                       # Total read bandwidth from this memory (bytes/s)
system.mem_ctrls.bw_read::cpu02.data              585                       # Total read bandwidth from this memory (bytes/s)
system.mem_ctrls.bw_read::cpu03.dtb.walker            1                       # Total read bandwidth from this memory (bytes/s)
system.mem_ctrls.bw_read::cpu03.itb.walker            0                       # Total read bandwidth from this memory (bytes/s)
system.mem_ctrls.bw_read::cpu03.inst               50                       # Total read bandwidth from this memory (bytes/s)
system.mem_ctrls.bw_read::cpu03.data              181                       # Total read bandwidth from this memory (bytes/s)
system.mem_ctrls.bw_read::cpu04.dtb.walker            2                       # Total read bandwidth from this memory (bytes/s)
system.mem_ctrls.bw_read::cpu04.itb.walker            0                       # Total read bandwidth from this memory (bytes/s)
system.mem_ctrls.bw_read::cpu04.inst               36                       # Total read bandwidth from this memory (bytes/s)
system.mem_ctrls.bw_read::cpu04.data              146                       # Total read bandwidth from this memory (bytes/s)
system.mem_ctrls.bw_read::cpu05.dtb.walker            2                       # Total read bandwidth from this memory (bytes/s)
system.mem_ctrls.bw_read::cpu05.itb.walker            1                       # Total read bandwidth from this memory (bytes/s)
system.mem_ctrls.bw_read::cpu05.inst               53                       # Total read bandwidth from this memory (bytes/s)
system.mem_ctrls.bw_read::cpu05.data              211                       # Total read bandwidth from this memory (bytes/s)
system.mem_ctrls.bw_read::cpu06.dtb.walker            2                       # Total read bandwidth from this memory (bytes/s)
system.mem_ctrls.bw_read::cpu06.itb.walker            1                       # Total read bandwidth from this memory (bytes/s)
system.mem_ctrls.bw_read::cpu06.inst               75                       # Total read bandwidth from this memory (bytes/s)
system.mem_ctrls.bw_read::cpu06.data              213                       # Total read bandwidth from this memory (bytes/s)
system.mem_ctrls.bw_read::cpu07.dtb.walker            2                       # Total read bandwidth from this memory (bytes/s)
system.mem_ctrls.bw_read::cpu07.itb.walker            1                       # Total read bandwidth from this memory (bytes/s)
system.mem_ctrls.bw_read::cpu07.inst               48                       # Total read bandwidth from this memory (bytes/s)
system.mem_ctrls.bw_read::cpu07.data              217                       # Total read bandwidth from this memory (bytes/s)
system.mem_ctrls.bw_read::cpu08.dtb.walker            1                       # Total read bandwidth from this memory (bytes/s)
system.mem_ctrls.bw_read::cpu08.itb.walker            0                       # Total read bandwidth from this memory (bytes/s)
system.mem_ctrls.bw_read::cpu08.inst               38                       # Total read bandwidth from this memory (bytes/s)
system.mem_ctrls.bw_read::cpu08.data              139                       # Total read bandwidth from this memory (bytes/s)
system.mem_ctrls.bw_read::cpu09.dtb.walker            2                       # Total read bandwidth from this memory (bytes/s)
system.mem_ctrls.bw_read::cpu09.itb.walker            1                       # Total read bandwidth from this memory (bytes/s)
system.mem_ctrls.bw_read::cpu09.inst               52                       # Total read bandwidth from this memory (bytes/s)
system.mem_ctrls.bw_read::cpu09.data              161                       # Total read bandwidth from this memory (bytes/s)
system.mem_ctrls.bw_read::cpu10.dtb.walker            2                       # Total read bandwidth from this memory (bytes/s)
system.mem_ctrls.bw_read::cpu10.itb.walker            0                       # Total read bandwidth from this memory (bytes/s)
system.mem_ctrls.bw_read::cpu10.inst               29                       # Total read bandwidth from this memory (bytes/s)
system.mem_ctrls.bw_read::cpu10.data              150                       # Total read bandwidth from this memory (bytes/s)
system.mem_ctrls.bw_read::cpu11.dtb.walker            3                       # Total read bandwidth from this memory (bytes/s)
system.mem_ctrls.bw_read::cpu11.itb.walker            1                       # Total read bandwidth from this memory (bytes/s)
system.mem_ctrls.bw_read::cpu11.inst               51                       # Total read bandwidth from this memory (bytes/s)
system.mem_ctrls.bw_read::cpu11.data              238                       # Total read bandwidth from this memory (bytes/s)
system.mem_ctrls.bw_read::cpu12.dtb.walker            2                       # Total read bandwidth from this memory (bytes/s)
system.mem_ctrls.bw_read::cpu12.itb.walker            1                       # Total read bandwidth from this memory (bytes/s)
system.mem_ctrls.bw_read::cpu12.inst               38                       # Total read bandwidth from this memory (bytes/s)
system.mem_ctrls.bw_read::cpu12.data              134                       # Total read bandwidth from this memory (bytes/s)
system.mem_ctrls.bw_read::cpu13.dtb.walker            6                       # Total read bandwidth from this memory (bytes/s)
system.mem_ctrls.bw_read::cpu13.itb.walker            1                       # Total read bandwidth from this memory (bytes/s)
system.mem_ctrls.bw_read::cpu13.inst              163                       # Total read bandwidth from this memory (bytes/s)
system.mem_ctrls.bw_read::cpu13.data              203                       # Total read bandwidth from this memory (bytes/s)
system.mem_ctrls.bw_read::cpu14.dtb.walker          222                       # Total read bandwidth from this memory (bytes/s)
system.mem_ctrls.bw_read::cpu14.itb.walker          155                       # Total read bandwidth from this memory (bytes/s)
system.mem_ctrls.bw_read::cpu14.inst             3124                       # Total read bandwidth from this memory (bytes/s)
system.mem_ctrls.bw_read::cpu14.data             2577                       # Total read bandwidth from this memory (bytes/s)
system.mem_ctrls.bw_read::cpu15.dtb.walker            9                       # Total read bandwidth from this memory (bytes/s)
system.mem_ctrls.bw_read::cpu15.itb.walker            2                       # Total read bandwidth from this memory (bytes/s)
system.mem_ctrls.bw_read::cpu15.inst              270                       # Total read bandwidth from this memory (bytes/s)
system.mem_ctrls.bw_read::cpu15.data              296                       # Total read bandwidth from this memory (bytes/s)
system.mem_ctrls.bw_read::pci_ide                   0                       # Total read bandwidth from this memory (bytes/s)
system.mem_ctrls.bw_read::total                 16633                       # Total read bandwidth from this memory (bytes/s)
system.mem_ctrls.bw_inst_read::cpu00.inst          211                       # Instruction read bandwidth from this memory (bytes/s)
system.mem_ctrls.bw_inst_read::cpu01.inst          104                       # Instruction read bandwidth from this memory (bytes/s)
system.mem_ctrls.bw_inst_read::cpu02.inst          478                       # Instruction read bandwidth from this memory (bytes/s)
system.mem_ctrls.bw_inst_read::cpu03.inst           50                       # Instruction read bandwidth from this memory (bytes/s)
system.mem_ctrls.bw_inst_read::cpu04.inst           36                       # Instruction read bandwidth from this memory (bytes/s)
system.mem_ctrls.bw_inst_read::cpu05.inst           53                       # Instruction read bandwidth from this memory (bytes/s)
system.mem_ctrls.bw_inst_read::cpu06.inst           75                       # Instruction read bandwidth from this memory (bytes/s)
system.mem_ctrls.bw_inst_read::cpu07.inst           48                       # Instruction read bandwidth from this memory (bytes/s)
system.mem_ctrls.bw_inst_read::cpu08.inst           38                       # Instruction read bandwidth from this memory (bytes/s)
system.mem_ctrls.bw_inst_read::cpu09.inst           52                       # Instruction read bandwidth from this memory (bytes/s)
system.mem_ctrls.bw_inst_read::cpu10.inst           29                       # Instruction read bandwidth from this memory (bytes/s)
system.mem_ctrls.bw_inst_read::cpu11.inst           51                       # Instruction read bandwidth from this memory (bytes/s)
system.mem_ctrls.bw_inst_read::cpu12.inst           38                       # Instruction read bandwidth from this memory (bytes/s)
system.mem_ctrls.bw_inst_read::cpu13.inst          163                       # Instruction read bandwidth from this memory (bytes/s)
system.mem_ctrls.bw_inst_read::cpu14.inst         3124                       # Instruction read bandwidth from this memory (bytes/s)
system.mem_ctrls.bw_inst_read::cpu15.inst          270                       # Instruction read bandwidth from this memory (bytes/s)
system.mem_ctrls.bw_inst_read::total             4820                       # Instruction read bandwidth from this memory (bytes/s)
system.mem_ctrls.bw_write::writebacks            6138                       # Write bandwidth from this memory (bytes/s)
system.mem_ctrls.bw_write::total                 6138                       # Write bandwidth from this memory (bytes/s)
system.mem_ctrls.bw_total::writebacks            6138                       # Total bandwidth to/from this memory (bytes/s)
system.mem_ctrls.bw_total::cpu00.dtb.walker          116                       # Total bandwidth to/from this memory (bytes/s)
system.mem_ctrls.bw_total::cpu00.itb.walker            4                       # Total bandwidth to/from this memory (bytes/s)
system.mem_ctrls.bw_total::cpu00.inst             211                       # Total bandwidth to/from this memory (bytes/s)
system.mem_ctrls.bw_total::cpu00.data            5606                       # Total bandwidth to/from this memory (bytes/s)
system.mem_ctrls.bw_total::cpu01.dtb.walker            3                       # Total bandwidth to/from this memory (bytes/s)
system.mem_ctrls.bw_total::cpu01.itb.walker            1                       # Total bandwidth to/from this memory (bytes/s)
system.mem_ctrls.bw_total::cpu01.inst             104                       # Total bandwidth to/from this memory (bytes/s)
system.mem_ctrls.bw_total::cpu01.data             187                       # Total bandwidth to/from this memory (bytes/s)
system.mem_ctrls.bw_total::cpu02.dtb.walker           15                       # Total bandwidth to/from this memory (bytes/s)
system.mem_ctrls.bw_total::cpu02.itb.walker           10                       # Total bandwidth to/from this memory (bytes/s)
system.mem_ctrls.bw_total::cpu02.inst             478                       # Total bandwidth to/from this memory (bytes/s)
system.mem_ctrls.bw_total::cpu02.data             585                       # Total bandwidth to/from this memory (bytes/s)
system.mem_ctrls.bw_total::cpu03.dtb.walker            1                       # Total bandwidth to/from this memory (bytes/s)
system.mem_ctrls.bw_total::cpu03.itb.walker            0                       # Total bandwidth to/from this memory (bytes/s)
system.mem_ctrls.bw_total::cpu03.inst              50                       # Total bandwidth to/from this memory (bytes/s)
system.mem_ctrls.bw_total::cpu03.data             181                       # Total bandwidth to/from this memory (bytes/s)
system.mem_ctrls.bw_total::cpu04.dtb.walker            2                       # Total bandwidth to/from this memory (bytes/s)
system.mem_ctrls.bw_total::cpu04.itb.walker            0                       # Total bandwidth to/from this memory (bytes/s)
system.mem_ctrls.bw_total::cpu04.inst              36                       # Total bandwidth to/from this memory (bytes/s)
system.mem_ctrls.bw_total::cpu04.data             146                       # Total bandwidth to/from this memory (bytes/s)
system.mem_ctrls.bw_total::cpu05.dtb.walker            2                       # Total bandwidth to/from this memory (bytes/s)
system.mem_ctrls.bw_total::cpu05.itb.walker            1                       # Total bandwidth to/from this memory (bytes/s)
system.mem_ctrls.bw_total::cpu05.inst              53                       # Total bandwidth to/from this memory (bytes/s)
system.mem_ctrls.bw_total::cpu05.data             211                       # Total bandwidth to/from this memory (bytes/s)
system.mem_ctrls.bw_total::cpu06.dtb.walker            2                       # Total bandwidth to/from this memory (bytes/s)
system.mem_ctrls.bw_total::cpu06.itb.walker            1                       # Total bandwidth to/from this memory (bytes/s)
system.mem_ctrls.bw_total::cpu06.inst              75                       # Total bandwidth to/from this memory (bytes/s)
system.mem_ctrls.bw_total::cpu06.data             213                       # Total bandwidth to/from this memory (bytes/s)
system.mem_ctrls.bw_total::cpu07.dtb.walker            2                       # Total bandwidth to/from this memory (bytes/s)
system.mem_ctrls.bw_total::cpu07.itb.walker            1                       # Total bandwidth to/from this memory (bytes/s)
system.mem_ctrls.bw_total::cpu07.inst              48                       # Total bandwidth to/from this memory (bytes/s)
system.mem_ctrls.bw_total::cpu07.data             217                       # Total bandwidth to/from this memory (bytes/s)
system.mem_ctrls.bw_total::cpu08.dtb.walker            1                       # Total bandwidth to/from this memory (bytes/s)
system.mem_ctrls.bw_total::cpu08.itb.walker            0                       # Total bandwidth to/from this memory (bytes/s)
system.mem_ctrls.bw_total::cpu08.inst              38                       # Total bandwidth to/from this memory (bytes/s)
system.mem_ctrls.bw_total::cpu08.data             139                       # Total bandwidth to/from this memory (bytes/s)
system.mem_ctrls.bw_total::cpu09.dtb.walker            2                       # Total bandwidth to/from this memory (bytes/s)
system.mem_ctrls.bw_total::cpu09.itb.walker            1                       # Total bandwidth to/from this memory (bytes/s)
system.mem_ctrls.bw_total::cpu09.inst              52                       # Total bandwidth to/from this memory (bytes/s)
system.mem_ctrls.bw_total::cpu09.data             161                       # Total bandwidth to/from this memory (bytes/s)
system.mem_ctrls.bw_total::cpu10.dtb.walker            2                       # Total bandwidth to/from this memory (bytes/s)
system.mem_ctrls.bw_total::cpu10.itb.walker            0                       # Total bandwidth to/from this memory (bytes/s)
system.mem_ctrls.bw_total::cpu10.inst              29                       # Total bandwidth to/from this memory (bytes/s)
system.mem_ctrls.bw_total::cpu10.data             150                       # Total bandwidth to/from this memory (bytes/s)
system.mem_ctrls.bw_total::cpu11.dtb.walker            3                       # Total bandwidth to/from this memory (bytes/s)
system.mem_ctrls.bw_total::cpu11.itb.walker            1                       # Total bandwidth to/from this memory (bytes/s)
system.mem_ctrls.bw_total::cpu11.inst              51                       # Total bandwidth to/from this memory (bytes/s)
system.mem_ctrls.bw_total::cpu11.data             238                       # Total bandwidth to/from this memory (bytes/s)
system.mem_ctrls.bw_total::cpu12.dtb.walker            2                       # Total bandwidth to/from this memory (bytes/s)
system.mem_ctrls.bw_total::cpu12.itb.walker            1                       # Total bandwidth to/from this memory (bytes/s)
system.mem_ctrls.bw_total::cpu12.inst              38                       # Total bandwidth to/from this memory (bytes/s)
system.mem_ctrls.bw_total::cpu12.data             134                       # Total bandwidth to/from this memory (bytes/s)
system.mem_ctrls.bw_total::cpu13.dtb.walker            6                       # Total bandwidth to/from this memory (bytes/s)
system.mem_ctrls.bw_total::cpu13.itb.walker            1                       # Total bandwidth to/from this memory (bytes/s)
system.mem_ctrls.bw_total::cpu13.inst             163                       # Total bandwidth to/from this memory (bytes/s)
system.mem_ctrls.bw_total::cpu13.data             203                       # Total bandwidth to/from this memory (bytes/s)
system.mem_ctrls.bw_total::cpu14.dtb.walker          222                       # Total bandwidth to/from this memory (bytes/s)
system.mem_ctrls.bw_total::cpu14.itb.walker          155                       # Total bandwidth to/from this memory (bytes/s)
system.mem_ctrls.bw_total::cpu14.inst            3124                       # Total bandwidth to/from this memory (bytes/s)
system.mem_ctrls.bw_total::cpu14.data            2577                       # Total bandwidth to/from this memory (bytes/s)
system.mem_ctrls.bw_total::cpu15.dtb.walker            9                       # Total bandwidth to/from this memory (bytes/s)
system.mem_ctrls.bw_total::cpu15.itb.walker            2                       # Total bandwidth to/from this memory (bytes/s)
system.mem_ctrls.bw_total::cpu15.inst             270                       # Total bandwidth to/from this memory (bytes/s)
system.mem_ctrls.bw_total::cpu15.data             296                       # Total bandwidth to/from this memory (bytes/s)
system.mem_ctrls.bw_total::pci_ide                  0                       # Total bandwidth to/from this memory (bytes/s)
system.mem_ctrls.bw_total::total                22771                       # Total bandwidth to/from this memory (bytes/s)
system.mem_ctrls.readReqs                           0                       # Number of read requests accepted
system.mem_ctrls.writeReqs                          0                       # Number of write requests accepted
system.mem_ctrls.readBursts                         0                       # Number of DRAM read bursts, including those serviced by the write queue
system.mem_ctrls.writeBursts                        0                       # Number of DRAM write bursts, including those merged in the write queue
system.mem_ctrls.bytesReadDRAM                      0                       # Total number of bytes read from DRAM
system.mem_ctrls.bytesReadWrQ                       0                       # Total number of bytes read from write queue
system.mem_ctrls.bytesWritten                       0                       # Total number of bytes written to DRAM
system.mem_ctrls.bytesReadSys                       0                       # Total read bytes from the system interface side
system.mem_ctrls.bytesWrittenSys                    0                       # Total written bytes from the system interface side
system.mem_ctrls.servicedByWrQ                      0                       # Number of DRAM read bursts serviced by the write queue
system.mem_ctrls.mergedWrBursts                     0                       # Number of DRAM write bursts merged with an existing one
system.mem_ctrls.neitherReadNorWriteReqs            0                       # Number of requests that are neither read nor write
system.mem_ctrls.perBankRdBursts::0                 0                       # Per bank write bursts
system.mem_ctrls.perBankRdBursts::1                 0                       # Per bank write bursts
system.mem_ctrls.perBankRdBursts::2                 0                       # Per bank write bursts
system.mem_ctrls.perBankRdBursts::3                 0                       # Per bank write bursts
system.mem_ctrls.perBankRdBursts::4                 0                       # Per bank write bursts
system.mem_ctrls.perBankRdBursts::5                 0                       # Per bank write bursts
system.mem_ctrls.perBankRdBursts::6                 0                       # Per bank write bursts
system.mem_ctrls.perBankRdBursts::7                 0                       # Per bank write bursts
system.mem_ctrls.perBankRdBursts::8                 0                       # Per bank write bursts
system.mem_ctrls.perBankRdBursts::9                 0                       # Per bank write bursts
system.mem_ctrls.perBankRdBursts::10                0                       # Per bank write bursts
system.mem_ctrls.perBankRdBursts::11                0                       # Per bank write bursts
system.mem_ctrls.perBankRdBursts::12                0                       # Per bank write bursts
system.mem_ctrls.perBankRdBursts::13                0                       # Per bank write bursts
system.mem_ctrls.perBankRdBursts::14                0                       # Per bank write bursts
system.mem_ctrls.perBankRdBursts::15                0                       # Per bank write bursts
system.mem_ctrls.perBankRdBursts::16                0                       # Per bank write bursts
system.mem_ctrls.perBankRdBursts::17                0                       # Per bank write bursts
system.mem_ctrls.perBankRdBursts::18                0                       # Per bank write bursts
system.mem_ctrls.perBankRdBursts::19                0                       # Per bank write bursts
system.mem_ctrls.perBankRdBursts::20                0                       # Per bank write bursts
system.mem_ctrls.perBankRdBursts::21                0                       # Per bank write bursts
system.mem_ctrls.perBankRdBursts::22                0                       # Per bank write bursts
system.mem_ctrls.perBankRdBursts::23                0                       # Per bank write bursts
system.mem_ctrls.perBankRdBursts::24                0                       # Per bank write bursts
system.mem_ctrls.perBankRdBursts::25                0                       # Per bank write bursts
system.mem_ctrls.perBankRdBursts::26                0                       # Per bank write bursts
system.mem_ctrls.perBankRdBursts::27                0                       # Per bank write bursts
system.mem_ctrls.perBankRdBursts::28                0                       # Per bank write bursts
system.mem_ctrls.perBankRdBursts::29                0                       # Per bank write bursts
system.mem_ctrls.perBankRdBursts::30                0                       # Per bank write bursts
system.mem_ctrls.perBankRdBursts::31                0                       # Per bank write bursts
system.mem_ctrls.perBankWrBursts::0                 0                       # Per bank write bursts
system.mem_ctrls.perBankWrBursts::1                 0                       # Per bank write bursts
system.mem_ctrls.perBankWrBursts::2                 0                       # Per bank write bursts
system.mem_ctrls.perBankWrBursts::3                 0                       # Per bank write bursts
system.mem_ctrls.perBankWrBursts::4                 0                       # Per bank write bursts
system.mem_ctrls.perBankWrBursts::5                 0                       # Per bank write bursts
system.mem_ctrls.perBankWrBursts::6                 0                       # Per bank write bursts
system.mem_ctrls.perBankWrBursts::7                 0                       # Per bank write bursts
system.mem_ctrls.perBankWrBursts::8                 0                       # Per bank write bursts
system.mem_ctrls.perBankWrBursts::9                 0                       # Per bank write bursts
system.mem_ctrls.perBankWrBursts::10                0                       # Per bank write bursts
system.mem_ctrls.perBankWrBursts::11                0                       # Per bank write bursts
system.mem_ctrls.perBankWrBursts::12                0                       # Per bank write bursts
system.mem_ctrls.perBankWrBursts::13                0                       # Per bank write bursts
system.mem_ctrls.perBankWrBursts::14                0                       # Per bank write bursts
system.mem_ctrls.perBankWrBursts::15                0                       # Per bank write bursts
system.mem_ctrls.perBankWrBursts::16                0                       # Per bank write bursts
system.mem_ctrls.perBankWrBursts::17                0                       # Per bank write bursts
system.mem_ctrls.perBankWrBursts::18                0                       # Per bank write bursts
system.mem_ctrls.perBankWrBursts::19                0                       # Per bank write bursts
system.mem_ctrls.perBankWrBursts::20                0                       # Per bank write bursts
system.mem_ctrls.perBankWrBursts::21                0                       # Per bank write bursts
system.mem_ctrls.perBankWrBursts::22                0                       # Per bank write bursts
system.mem_ctrls.perBankWrBursts::23                0                       # Per bank write bursts
system.mem_ctrls.perBankWrBursts::24                0                       # Per bank write bursts
system.mem_ctrls.perBankWrBursts::25                0                       # Per bank write bursts
system.mem_ctrls.perBankWrBursts::26                0                       # Per bank write bursts
system.mem_ctrls.perBankWrBursts::27                0                       # Per bank write bursts
system.mem_ctrls.perBankWrBursts::28                0                       # Per bank write bursts
system.mem_ctrls.perBankWrBursts::29                0                       # Per bank write bursts
system.mem_ctrls.perBankWrBursts::30                0                       # Per bank write bursts
system.mem_ctrls.perBankWrBursts::31                0                       # Per bank write bursts
system.mem_ctrls.numRdRetry                         0                       # Number of times read queue was full causing retry
system.mem_ctrls.numWrRetry                         0                       # Number of times write queue was full causing retry
system.mem_ctrls.totGap                             0                       # Total gap between requests
system.mem_ctrls.readPktSize::0                     0                       # Read request sizes (log2)
system.mem_ctrls.readPktSize::1                     0                       # Read request sizes (log2)
system.mem_ctrls.readPktSize::2                     0                       # Read request sizes (log2)
system.mem_ctrls.readPktSize::3                     0                       # Read request sizes (log2)
system.mem_ctrls.readPktSize::4                     0                       # Read request sizes (log2)
system.mem_ctrls.readPktSize::5                     0                       # Read request sizes (log2)
system.mem_ctrls.readPktSize::6                     0                       # Read request sizes (log2)
system.mem_ctrls.writePktSize::0                    0                       # Write request sizes (log2)
system.mem_ctrls.writePktSize::1                    0                       # Write request sizes (log2)
system.mem_ctrls.writePktSize::2                    0                       # Write request sizes (log2)
system.mem_ctrls.writePktSize::3                    0                       # Write request sizes (log2)
system.mem_ctrls.writePktSize::4                    0                       # Write request sizes (log2)
system.mem_ctrls.writePktSize::5                    0                       # Write request sizes (log2)
system.mem_ctrls.writePktSize::6                    0                       # Write request sizes (log2)
system.mem_ctrls.rdQLenPdf::0                       0                       # What read queue length does an incoming req see
system.mem_ctrls.rdQLenPdf::1                       0                       # What read queue length does an incoming req see
system.mem_ctrls.rdQLenPdf::2                       0                       # What read queue length does an incoming req see
system.mem_ctrls.rdQLenPdf::3                       0                       # What read queue length does an incoming req see
system.mem_ctrls.rdQLenPdf::4                       0                       # What read queue length does an incoming req see
system.mem_ctrls.rdQLenPdf::5                       0                       # What read queue length does an incoming req see
system.mem_ctrls.rdQLenPdf::6                       0                       # What read queue length does an incoming req see
system.mem_ctrls.rdQLenPdf::7                       0                       # What read queue length does an incoming req see
system.mem_ctrls.rdQLenPdf::8                       0                       # What read queue length does an incoming req see
system.mem_ctrls.rdQLenPdf::9                       0                       # What read queue length does an incoming req see
system.mem_ctrls.rdQLenPdf::10                      0                       # What read queue length does an incoming req see
system.mem_ctrls.rdQLenPdf::11                      0                       # What read queue length does an incoming req see
system.mem_ctrls.rdQLenPdf::12                      0                       # What read queue length does an incoming req see
system.mem_ctrls.rdQLenPdf::13                      0                       # What read queue length does an incoming req see
system.mem_ctrls.rdQLenPdf::14                      0                       # What read queue length does an incoming req see
system.mem_ctrls.rdQLenPdf::15                      0                       # What read queue length does an incoming req see
system.mem_ctrls.rdQLenPdf::16                      0                       # What read queue length does an incoming req see
system.mem_ctrls.rdQLenPdf::17                      0                       # What read queue length does an incoming req see
system.mem_ctrls.rdQLenPdf::18                      0                       # What read queue length does an incoming req see
system.mem_ctrls.rdQLenPdf::19                      0                       # What read queue length does an incoming req see
system.mem_ctrls.rdQLenPdf::20                      0                       # What read queue length does an incoming req see
system.mem_ctrls.rdQLenPdf::21                      0                       # What read queue length does an incoming req see
system.mem_ctrls.rdQLenPdf::22                      0                       # What read queue length does an incoming req see
system.mem_ctrls.rdQLenPdf::23                      0                       # What read queue length does an incoming req see
system.mem_ctrls.rdQLenPdf::24                      0                       # What read queue length does an incoming req see
system.mem_ctrls.rdQLenPdf::25                      0                       # What read queue length does an incoming req see
system.mem_ctrls.rdQLenPdf::26                      0                       # What read queue length does an incoming req see
system.mem_ctrls.rdQLenPdf::27                      0                       # What read queue length does an incoming req see
system.mem_ctrls.rdQLenPdf::28                      0                       # What read queue length does an incoming req see
system.mem_ctrls.rdQLenPdf::29                      0                       # What read queue length does an incoming req see
system.mem_ctrls.rdQLenPdf::30                      0                       # What read queue length does an incoming req see
system.mem_ctrls.rdQLenPdf::31                      0                       # What read queue length does an incoming req see
system.mem_ctrls.rdQLenPdf::32                      0                       # What read queue length does an incoming req see
system.mem_ctrls.rdQLenPdf::33                      0                       # What read queue length does an incoming req see
system.mem_ctrls.rdQLenPdf::34                      0                       # What read queue length does an incoming req see
system.mem_ctrls.rdQLenPdf::35                      0                       # What read queue length does an incoming req see
system.mem_ctrls.rdQLenPdf::36                      0                       # What read queue length does an incoming req see
system.mem_ctrls.rdQLenPdf::37                      0                       # What read queue length does an incoming req see
system.mem_ctrls.rdQLenPdf::38                      0                       # What read queue length does an incoming req see
system.mem_ctrls.rdQLenPdf::39                      0                       # What read queue length does an incoming req see
system.mem_ctrls.rdQLenPdf::40                      0                       # What read queue length does an incoming req see
system.mem_ctrls.rdQLenPdf::41                      0                       # What read queue length does an incoming req see
system.mem_ctrls.rdQLenPdf::42                      0                       # What read queue length does an incoming req see
system.mem_ctrls.rdQLenPdf::43                      0                       # What read queue length does an incoming req see
system.mem_ctrls.rdQLenPdf::44                      0                       # What read queue length does an incoming req see
system.mem_ctrls.rdQLenPdf::45                      0                       # What read queue length does an incoming req see
system.mem_ctrls.rdQLenPdf::46                      0                       # What read queue length does an incoming req see
system.mem_ctrls.rdQLenPdf::47                      0                       # What read queue length does an incoming req see
system.mem_ctrls.rdQLenPdf::48                      0                       # What read queue length does an incoming req see
system.mem_ctrls.rdQLenPdf::49                      0                       # What read queue length does an incoming req see
system.mem_ctrls.rdQLenPdf::50                      0                       # What read queue length does an incoming req see
system.mem_ctrls.rdQLenPdf::51                      0                       # What read queue length does an incoming req see
system.mem_ctrls.rdQLenPdf::52                      0                       # What read queue length does an incoming req see
system.mem_ctrls.rdQLenPdf::53                      0                       # What read queue length does an incoming req see
system.mem_ctrls.rdQLenPdf::54                      0                       # What read queue length does an incoming req see
system.mem_ctrls.rdQLenPdf::55                      0                       # What read queue length does an incoming req see
system.mem_ctrls.rdQLenPdf::56                      0                       # What read queue length does an incoming req see
system.mem_ctrls.rdQLenPdf::57                      0                       # What read queue length does an incoming req see
system.mem_ctrls.rdQLenPdf::58                      0                       # What read queue length does an incoming req see
system.mem_ctrls.rdQLenPdf::59                      0                       # What read queue length does an incoming req see
system.mem_ctrls.rdQLenPdf::60                      0                       # What read queue length does an incoming req see
system.mem_ctrls.rdQLenPdf::61                      0                       # What read queue length does an incoming req see
system.mem_ctrls.rdQLenPdf::62                      0                       # What read queue length does an incoming req see
system.mem_ctrls.rdQLenPdf::63                      0                       # What read queue length does an incoming req see
system.mem_ctrls.wrQLenPdf::0                       0                       # What write queue length does an incoming req see
system.mem_ctrls.wrQLenPdf::1                       0                       # What write queue length does an incoming req see
system.mem_ctrls.wrQLenPdf::2                       0                       # What write queue length does an incoming req see
system.mem_ctrls.wrQLenPdf::3                       0                       # What write queue length does an incoming req see
system.mem_ctrls.wrQLenPdf::4                       0                       # What write queue length does an incoming req see
system.mem_ctrls.wrQLenPdf::5                       0                       # What write queue length does an incoming req see
system.mem_ctrls.wrQLenPdf::6                       0                       # What write queue length does an incoming req see
system.mem_ctrls.wrQLenPdf::7                       0                       # What write queue length does an incoming req see
system.mem_ctrls.wrQLenPdf::8                       0                       # What write queue length does an incoming req see
system.mem_ctrls.wrQLenPdf::9                       0                       # What write queue length does an incoming req see
system.mem_ctrls.wrQLenPdf::10                      0                       # What write queue length does an incoming req see
system.mem_ctrls.wrQLenPdf::11                      0                       # What write queue length does an incoming req see
system.mem_ctrls.wrQLenPdf::12                      0                       # What write queue length does an incoming req see
system.mem_ctrls.wrQLenPdf::13                      0                       # What write queue length does an incoming req see
system.mem_ctrls.wrQLenPdf::14                      0                       # What write queue length does an incoming req see
system.mem_ctrls.wrQLenPdf::15                      0                       # What write queue length does an incoming req see
system.mem_ctrls.wrQLenPdf::16                      0                       # What write queue length does an incoming req see
system.mem_ctrls.wrQLenPdf::17                      0                       # What write queue length does an incoming req see
system.mem_ctrls.wrQLenPdf::18                      0                       # What write queue length does an incoming req see
system.mem_ctrls.wrQLenPdf::19                      0                       # What write queue length does an incoming req see
system.mem_ctrls.wrQLenPdf::20                      0                       # What write queue length does an incoming req see
system.mem_ctrls.wrQLenPdf::21                      0                       # What write queue length does an incoming req see
system.mem_ctrls.wrQLenPdf::22                      0                       # What write queue length does an incoming req see
system.mem_ctrls.wrQLenPdf::23                      0                       # What write queue length does an incoming req see
system.mem_ctrls.wrQLenPdf::24                      0                       # What write queue length does an incoming req see
system.mem_ctrls.wrQLenPdf::25                      0                       # What write queue length does an incoming req see
system.mem_ctrls.wrQLenPdf::26                      0                       # What write queue length does an incoming req see
system.mem_ctrls.wrQLenPdf::27                      0                       # What write queue length does an incoming req see
system.mem_ctrls.wrQLenPdf::28                      0                       # What write queue length does an incoming req see
system.mem_ctrls.wrQLenPdf::29                      0                       # What write queue length does an incoming req see
system.mem_ctrls.wrQLenPdf::30                      0                       # What write queue length does an incoming req see
system.mem_ctrls.wrQLenPdf::31                      0                       # What write queue length does an incoming req see
system.mem_ctrls.wrQLenPdf::32                      0                       # What write queue length does an incoming req see
system.mem_ctrls.wrQLenPdf::33                      0                       # What write queue length does an incoming req see
system.mem_ctrls.wrQLenPdf::34                      0                       # What write queue length does an incoming req see
system.mem_ctrls.wrQLenPdf::35                      0                       # What write queue length does an incoming req see
system.mem_ctrls.wrQLenPdf::36                      0                       # What write queue length does an incoming req see
system.mem_ctrls.wrQLenPdf::37                      0                       # What write queue length does an incoming req see
system.mem_ctrls.wrQLenPdf::38                      0                       # What write queue length does an incoming req see
system.mem_ctrls.wrQLenPdf::39                      0                       # What write queue length does an incoming req see
system.mem_ctrls.wrQLenPdf::40                      0                       # What write queue length does an incoming req see
system.mem_ctrls.wrQLenPdf::41                      0                       # What write queue length does an incoming req see
system.mem_ctrls.wrQLenPdf::42                      0                       # What write queue length does an incoming req see
system.mem_ctrls.wrQLenPdf::43                      0                       # What write queue length does an incoming req see
system.mem_ctrls.wrQLenPdf::44                      0                       # What write queue length does an incoming req see
system.mem_ctrls.wrQLenPdf::45                      0                       # What write queue length does an incoming req see
system.mem_ctrls.wrQLenPdf::46                      0                       # What write queue length does an incoming req see
system.mem_ctrls.wrQLenPdf::47                      0                       # What write queue length does an incoming req see
system.mem_ctrls.wrQLenPdf::48                      0                       # What write queue length does an incoming req see
system.mem_ctrls.wrQLenPdf::49                      0                       # What write queue length does an incoming req see
system.mem_ctrls.wrQLenPdf::50                      0                       # What write queue length does an incoming req see
system.mem_ctrls.wrQLenPdf::51                      0                       # What write queue length does an incoming req see
system.mem_ctrls.wrQLenPdf::52                      0                       # What write queue length does an incoming req see
system.mem_ctrls.wrQLenPdf::53                      0                       # What write queue length does an incoming req see
system.mem_ctrls.wrQLenPdf::54                      0                       # What write queue length does an incoming req see
system.mem_ctrls.wrQLenPdf::55                      0                       # What write queue length does an incoming req see
system.mem_ctrls.wrQLenPdf::56                      0                       # What write queue length does an incoming req see
system.mem_ctrls.wrQLenPdf::57                      0                       # What write queue length does an incoming req see
system.mem_ctrls.wrQLenPdf::58                      0                       # What write queue length does an incoming req see
system.mem_ctrls.wrQLenPdf::59                      0                       # What write queue length does an incoming req see
system.mem_ctrls.wrQLenPdf::60                      0                       # What write queue length does an incoming req see
system.mem_ctrls.wrQLenPdf::61                      0                       # What write queue length does an incoming req see
system.mem_ctrls.wrQLenPdf::62                      0                       # What write queue length does an incoming req see
system.mem_ctrls.wrQLenPdf::63                      0                       # What write queue length does an incoming req see
system.mem_ctrls.wrQLenPdf::64                      0                       # What write queue length does an incoming req see
system.mem_ctrls.wrQLenPdf::65                      0                       # What write queue length does an incoming req see
system.mem_ctrls.wrQLenPdf::66                      0                       # What write queue length does an incoming req see
system.mem_ctrls.wrQLenPdf::67                      0                       # What write queue length does an incoming req see
system.mem_ctrls.wrQLenPdf::68                      0                       # What write queue length does an incoming req see
system.mem_ctrls.wrQLenPdf::69                      0                       # What write queue length does an incoming req see
system.mem_ctrls.wrQLenPdf::70                      0                       # What write queue length does an incoming req see
system.mem_ctrls.wrQLenPdf::71                      0                       # What write queue length does an incoming req see
system.mem_ctrls.wrQLenPdf::72                      0                       # What write queue length does an incoming req see
system.mem_ctrls.wrQLenPdf::73                      0                       # What write queue length does an incoming req see
system.mem_ctrls.wrQLenPdf::74                      0                       # What write queue length does an incoming req see
system.mem_ctrls.wrQLenPdf::75                      0                       # What write queue length does an incoming req see
system.mem_ctrls.wrQLenPdf::76                      0                       # What write queue length does an incoming req see
system.mem_ctrls.wrQLenPdf::77                      0                       # What write queue length does an incoming req see
system.mem_ctrls.wrQLenPdf::78                      0                       # What write queue length does an incoming req see
system.mem_ctrls.wrQLenPdf::79                      0                       # What write queue length does an incoming req see
system.mem_ctrls.wrQLenPdf::80                      0                       # What write queue length does an incoming req see
system.mem_ctrls.wrQLenPdf::81                      0                       # What write queue length does an incoming req see
system.mem_ctrls.wrQLenPdf::82                      0                       # What write queue length does an incoming req see
system.mem_ctrls.wrQLenPdf::83                      0                       # What write queue length does an incoming req see
system.mem_ctrls.wrQLenPdf::84                      0                       # What write queue length does an incoming req see
system.mem_ctrls.wrQLenPdf::85                      0                       # What write queue length does an incoming req see
system.mem_ctrls.wrQLenPdf::86                      0                       # What write queue length does an incoming req see
system.mem_ctrls.wrQLenPdf::87                      0                       # What write queue length does an incoming req see
system.mem_ctrls.wrQLenPdf::88                      0                       # What write queue length does an incoming req see
system.mem_ctrls.wrQLenPdf::89                      0                       # What write queue length does an incoming req see
system.mem_ctrls.wrQLenPdf::90                      0                       # What write queue length does an incoming req see
system.mem_ctrls.wrQLenPdf::91                      0                       # What write queue length does an incoming req see
system.mem_ctrls.wrQLenPdf::92                      0                       # What write queue length does an incoming req see
system.mem_ctrls.wrQLenPdf::93                      0                       # What write queue length does an incoming req see
system.mem_ctrls.wrQLenPdf::94                      0                       # What write queue length does an incoming req see
system.mem_ctrls.wrQLenPdf::95                      0                       # What write queue length does an incoming req see
system.mem_ctrls.wrQLenPdf::96                      0                       # What write queue length does an incoming req see
system.mem_ctrls.wrQLenPdf::97                      0                       # What write queue length does an incoming req see
system.mem_ctrls.wrQLenPdf::98                      0                       # What write queue length does an incoming req see
system.mem_ctrls.wrQLenPdf::99                      0                       # What write queue length does an incoming req see
system.mem_ctrls.wrQLenPdf::100                     0                       # What write queue length does an incoming req see
system.mem_ctrls.wrQLenPdf::101                     0                       # What write queue length does an incoming req see
system.mem_ctrls.wrQLenPdf::102                     0                       # What write queue length does an incoming req see
system.mem_ctrls.wrQLenPdf::103                     0                       # What write queue length does an incoming req see
system.mem_ctrls.wrQLenPdf::104                     0                       # What write queue length does an incoming req see
system.mem_ctrls.wrQLenPdf::105                     0                       # What write queue length does an incoming req see
system.mem_ctrls.wrQLenPdf::106                     0                       # What write queue length does an incoming req see
system.mem_ctrls.wrQLenPdf::107                     0                       # What write queue length does an incoming req see
system.mem_ctrls.wrQLenPdf::108                     0                       # What write queue length does an incoming req see
system.mem_ctrls.wrQLenPdf::109                     0                       # What write queue length does an incoming req see
system.mem_ctrls.wrQLenPdf::110                     0                       # What write queue length does an incoming req see
system.mem_ctrls.wrQLenPdf::111                     0                       # What write queue length does an incoming req see
system.mem_ctrls.wrQLenPdf::112                     0                       # What write queue length does an incoming req see
system.mem_ctrls.wrQLenPdf::113                     0                       # What write queue length does an incoming req see
system.mem_ctrls.wrQLenPdf::114                     0                       # What write queue length does an incoming req see
system.mem_ctrls.wrQLenPdf::115                     0                       # What write queue length does an incoming req see
system.mem_ctrls.wrQLenPdf::116                     0                       # What write queue length does an incoming req see
system.mem_ctrls.wrQLenPdf::117                     0                       # What write queue length does an incoming req see
system.mem_ctrls.wrQLenPdf::118                     0                       # What write queue length does an incoming req see
system.mem_ctrls.wrQLenPdf::119                     0                       # What write queue length does an incoming req see
system.mem_ctrls.wrQLenPdf::120                     0                       # What write queue length does an incoming req see
system.mem_ctrls.wrQLenPdf::121                     0                       # What write queue length does an incoming req see
system.mem_ctrls.wrQLenPdf::122                     0                       # What write queue length does an incoming req see
system.mem_ctrls.wrQLenPdf::123                     0                       # What write queue length does an incoming req see
system.mem_ctrls.wrQLenPdf::124                     0                       # What write queue length does an incoming req see
system.mem_ctrls.wrQLenPdf::125                     0                       # What write queue length does an incoming req see
system.mem_ctrls.wrQLenPdf::126                     0                       # What write queue length does an incoming req see
system.mem_ctrls.wrQLenPdf::127                     0                       # What write queue length does an incoming req see
system.mem_ctrls.totQLat                            0                       # Total ticks spent queuing
system.mem_ctrls.totMemAccLat                       0                       # Total ticks spent from burst creation until serviced by the DRAM
system.mem_ctrls.totBusLat                          0                       # Total ticks spent in databus transfers
system.mem_ctrls.avgQLat                          nan                       # Average queueing delay per DRAM burst
system.mem_ctrls.avgBusLat                        nan                       # Average bus latency per DRAM burst
system.mem_ctrls.avgMemAccLat                     nan                       # Average memory access latency per DRAM burst
system.mem_ctrls.avgRdBW                         0.00                       # Average DRAM read bandwidth in MiByte/s
system.mem_ctrls.avgWrBW                         0.00                       # Average achieved write bandwidth in MiByte/s
system.mem_ctrls.avgRdBWSys                      0.00                       # Average system read bandwidth in MiByte/s
system.mem_ctrls.avgWrBWSys                      0.00                       # Average system write bandwidth in MiByte/s
system.mem_ctrls.peakBW                      19207.00                       # Theoretical peak bandwidth in MiByte/s
system.mem_ctrls.busUtil                         0.00                       # Data bus utilization in percentage
system.mem_ctrls.busUtilRead                     0.00                       # Data bus utilization in percentage for reads
system.mem_ctrls.busUtilWrite                    0.00                       # Data bus utilization in percentage for writes
system.mem_ctrls.avgRdQLen                       0.00                       # Average read queue length when enqueuing
system.mem_ctrls.avgWrQLen                       0.00                       # Average write queue length when enqueuing
system.mem_ctrls.readRowHits                        0                       # Number of row buffer hits during reads
system.mem_ctrls.writeRowHits                       0                       # Number of row buffer hits during writes
system.mem_ctrls.readRowHitRate                   nan                       # Row buffer hit rate for reads
system.mem_ctrls.writeRowHitRate                  nan                       # Row buffer hit rate for writes
system.mem_ctrls.avgGap                           nan                       # Average gap between requests
system.mem_ctrls.pageHitRate                      nan                       # Row buffer hit rate, read and write combined
system.mem_ctrls_0.actEnergy                        0                       # Energy for activate commands per rank (pJ)
system.mem_ctrls_0.preEnergy                        0                       # Energy for precharge commands per rank (pJ)
system.mem_ctrls_0.readEnergy                       0                       # Energy for read commands per rank (pJ)
system.mem_ctrls_0.writeEnergy                      0                       # Energy for write commands per rank (pJ)
system.mem_ctrls_0.refreshEnergy                    0                       # Energy for refresh commands per rank (pJ)
system.mem_ctrls_0.actBackEnergy                    0                       # Energy for active background per rank (pJ)
system.mem_ctrls_0.preBackEnergy         7326131861393475                       # Energy for precharge background per rank (pJ)
system.mem_ctrls_0.actPowerDownEnergy               0                       # Energy for active power-down per rank (pJ)
system.mem_ctrls_0.prePowerDownEnergy               0                       # Energy for precharge power-down per rank (pJ)
system.mem_ctrls_0.selfRefreshEnergy                0                       # Energy for self refresh per rank (pJ)
system.mem_ctrls_0.totalEnergy           7326131861393475                       # Total energy per rank (pJ)
system.mem_ctrls_0.averagePower            163.200000                       # Core power per rank (mW)
system.mem_ctrls_0.totalIdleTime                    0                       # Total Idle time Per DRAM Rank
system.mem_ctrls_0.memoryStateTime::IDLE 51637636911358496                       # Time in different power states
system.mem_ctrls_0.memoryStateTime::REF             0                       # Time in different power states
system.mem_ctrls_0.memoryStateTime::SREF            0                       # Time in different power states
system.mem_ctrls_0.memoryStateTime::PRE_PDN            0                       # Time in different power states
system.mem_ctrls_0.memoryStateTime::ACT             0                       # Time in different power states
system.mem_ctrls_0.memoryStateTime::ACT_PDN            0                       # Time in different power states
system.mem_ctrls_1.actEnergy                        0                       # Energy for activate commands per rank (pJ)
system.mem_ctrls_1.preEnergy                        0                       # Energy for precharge commands per rank (pJ)
system.mem_ctrls_1.readEnergy                       0                       # Energy for read commands per rank (pJ)
system.mem_ctrls_1.writeEnergy                      0                       # Energy for write commands per rank (pJ)
system.mem_ctrls_1.refreshEnergy                    0                       # Energy for refresh commands per rank (pJ)
system.mem_ctrls_1.actBackEnergy                    0                       # Energy for active background per rank (pJ)
[...]
system.tol2bus12.pkt_size::total            172954785                       # Cumulative packet size per connected master and slave (bytes)
system.tol2bus12.snoops                       2121850                       # Total snoops (count)
system.tol2bus12.snoopTraffic                 4401920                       # Total snoop traffic (bytes)
system.tol2bus12.snoop_fanout::samples        3829343                       # Request fanout histogram
system.tol2bus12.snoop_fanout::mean          0.101076                       # Request fanout histogram
system.tol2bus12.snoop_fanout::stdev         0.301534                       # Request fanout histogram
system.tol2bus12.snoop_fanout::underflows            0      0.00%      0.00% # Request fanout histogram
system.tol2bus12.snoop_fanout::0              3442410     89.90%     89.90% # Request fanout histogram
system.tol2bus12.snoop_fanout::1               386812     10.10%    100.00% # Request fanout histogram
system.tol2bus12.snoop_fanout::2                  121      0.00%    100.00% # Request fanout histogram
system.tol2bus12.snoop_fanout::overflows            0      0.00%    100.00% # Request fanout histogram
system.tol2bus12.snoop_fanout::min_value            0                       # Request fanout histogram
system.tol2bus12.snoop_fanout::max_value            2                       # Request fanout histogram
system.tol2bus12.snoop_fanout::total          3829343                       # Request fanout histogram
system.tol2bus12.directResponses                    0                       # auxiliar stat for checking how reasonable wireless model is
system.tol2bus13.snoop_filter.tot_requests     22876105                       # Total number of requests made to the snoop filter.
system.tol2bus13.snoop_filter.hit_single_requests     11463884                       # Number of requests hitting in the snoop filter with a single holder of the requested data.
system.tol2bus13.snoop_filter.hit_multi_requests          290                       # Number of requests hitting in the snoop filter with multiple (>1) holders of the requested data.
system.tol2bus13.snoop_filter.tot_snoops       704941                       # Total number of snoops made to the snoop filter.
system.tol2bus13.snoop_filter.hit_single_snoops       704880                       # Number of snoops hitting in the snoop filter with a single holder of the requested data.
system.tol2bus13.snoop_filter.hit_multi_snoops           61                       # Number of snoops hitting in the snoop filter with multiple (>1) holders of the requested data.
system.tol2bus13.pwrStateResidencyTicks::UNDEFINED 51637636911358496                       # Cumulative time (in ticks) in various power states
system.tol2bus13.trans_dist::ReadReq          3689324                       # Transaction distribution
system.tol2bus13.trans_dist::ReadResp        14388747                       # Transaction distribution
system.tol2bus13.trans_dist::WriteReq            9670                       # Transaction distribution
system.tol2bus13.trans_dist::WriteResp           9670                       # Transaction distribution
system.tol2bus13.trans_dist::WritebackDirty      1930176                       # Transaction distribution
system.tol2bus13.trans_dist::WritebackClean      7629564                       # Transaction distribution
system.tol2bus13.trans_dist::CleanEvict       1718080                       # Transaction distribution
system.tol2bus13.trans_dist::UpgradeReq        101298                       # Transaction distribution
system.tol2bus13.trans_dist::SCUpgradeReq        81879                       # Transaction distribution
system.tol2bus13.trans_dist::UpgradeResp       183177                       # Transaction distribution
system.tol2bus13.trans_dist::ReadExReq         569192                       # Transaction distribution
system.tol2bus13.trans_dist::ReadExResp        569192                       # Transaction distribution
system.tol2bus13.trans_dist::ReadCleanReq      7630076                       # Transaction distribution
system.tol2bus13.trans_dist::ReadSharedReq      3069347                       # Transaction distribution
system.tol2bus13.trans_dist::CleanSharedReq          320                       # Transaction distribution
system.tol2bus13.trans_dist::CleanSharedResp          320                       # Transaction distribution
system.tol2bus13.trans_dist::InvalidateReq       143574                       # Transaction distribution
system.tol2bus13.trans_dist::InvalidateResp       143574                       # Transaction distribution
system.tol2bus13.pkt_count_system.cpu13.icache.mem_side::system.l213.cpu_side     22889716                       # Packet count per connected master and slave (bytes)
system.tol2bus13.pkt_count_system.cpu13.dcache.mem_side::system.l213.cpu_side     11632116                       # Packet count per connected master and slave (bytes)
system.tol2bus13.pkt_count_system.cpu13.itb.walker.dma::system.l213.cpu_side      4735132                       # Packet count per connected master and slave (bytes)
system.tol2bus13.pkt_count_system.cpu13.dtb.walker.dma::system.l213.cpu_side      2610216                       # Packet count per connected master and slave (bytes)
system.tol2bus13.pkt_count::total            41867180                       # Packet count per connected master and slave (bytes)
system.tol2bus13.pkt_size_system.cpu13.icache.mem_side::system.l213.cpu_side    976616960                       # Cumulative packet size per connected master and slave (bytes)
system.tol2bus13.pkt_size_system.cpu13.dcache.mem_side::system.l213.cpu_side    356503030                       # Cumulative packet size per connected master and slave (bytes)
system.tol2bus13.pkt_size_system.cpu13.itb.walker.dma::system.l213.cpu_side     18940528                       # Cumulative packet size per connected master and slave (bytes)
system.tol2bus13.pkt_size_system.cpu13.dtb.walker.dma::system.l213.cpu_side     10440864                       # Cumulative packet size per connected master and slave (bytes)
system.tol2bus13.pkt_size::total           1362501382                       # Cumulative packet size per connected master and slave (bytes)
system.tol2bus13.snoops                       3729443                       # Total snoops (count)
system.tol2bus13.snoopTraffic                 5960320                       # Total snoop traffic (bytes)
system.tol2bus13.snoop_fanout::samples       18797557                       # Request fanout histogram
system.tol2bus13.snoop_fanout::mean          0.037659                       # Request fanout histogram
system.tol2bus13.snoop_fanout::stdev         0.190386                       # Request fanout histogram
system.tol2bus13.snoop_fanout::underflows            0      0.00%      0.00% # Request fanout histogram
system.tol2bus13.snoop_fanout::0             18089727     96.23%     96.23% # Request fanout histogram
system.tol2bus13.snoop_fanout::1               707769      3.77%    100.00% # Request fanout histogram
system.tol2bus13.snoop_fanout::2                   61      0.00%    100.00% # Request fanout histogram
system.tol2bus13.snoop_fanout::overflows            0      0.00%    100.00% # Request fanout histogram
system.tol2bus13.snoop_fanout::min_value            0                       # Request fanout histogram
system.tol2bus13.snoop_fanout::max_value            2                       # Request fanout histogram
system.tol2bus13.snoop_fanout::total         18797557                       # Request fanout histogram
system.tol2bus13.directResponses                    0                       # auxiliar stat for checking how reasonable wireless model is
system.tol2bus14.snoop_filter.tot_requests    266566582                       # Total number of requests made to the snoop filter.
system.tol2bus14.snoop_filter.hit_single_requests    133324349                       # Number of requests hitting in the snoop filter with a single holder of the requested data.
system.tol2bus14.snoop_filter.hit_multi_requests          248                       # Number of requests hitting in the snoop filter with multiple (>1) holders of the requested data.
system.tol2bus14.snoop_filter.tot_snoops      2181907                       # Total number of snoops made to the snoop filter.
system.tol2bus14.snoop_filter.hit_single_snoops      2181791                       # Number of snoops hitting in the snoop filter with a single holder of the requested data.
system.tol2bus14.snoop_filter.hit_multi_snoops          116                       # Number of snoops hitting in the snoop filter with multiple (>1) holders of the requested data.
system.tol2bus14.pwrStateResidencyTicks::UNDEFINED 51637636911358496                       # Cumulative time (in ticks) in various power states
system.tol2bus14.trans_dist::ReadReq         36684971                       # Transaction distribution
system.tol2bus14.trans_dist::ReadResp       163290330                       # Transaction distribution
system.tol2bus14.trans_dist::WriteReq           26710                       # Transaction distribution
system.tol2bus14.trans_dist::WriteResp          26710                       # Transaction distribution
system.tol2bus14.trans_dist::WritebackDirty     15767849                       # Transaction distribution
system.tol2bus14.trans_dist::WritebackClean    103533019                       # Transaction distribution
system.tol2bus14.trans_dist::CleanEvict      13520379                       # Transaction distribution
system.tol2bus14.trans_dist::UpgradeReq        291812                       # Transaction distribution
system.tol2bus14.trans_dist::SCUpgradeReq       200242                       # Transaction distribution
system.tol2bus14.trans_dist::UpgradeResp       492054                       # Transaction distribution
system.tol2bus14.trans_dist::ReadExReq        5122346                       # Transaction distribution
system.tol2bus14.trans_dist::ReadExResp       5122346                       # Transaction distribution
system.tol2bus14.trans_dist::ReadCleanReq    103533531                       # Transaction distribution
system.tol2bus14.trans_dist::ReadSharedReq     23071828                       # Transaction distribution
system.tol2bus14.trans_dist::CleanSharedReq           64                       # Transaction distribution
system.tol2bus14.trans_dist::CleanSharedResp           64                       # Transaction distribution
system.tol2bus14.trans_dist::InvalidateReq      1523887                       # Transaction distribution
system.tol2bus14.trans_dist::InvalidateResp      1523887                       # Transaction distribution
system.tol2bus14.pkt_count_system.cpu14.icache.mem_side::system.l214.cpu_side    310600081                       # Packet count per connected master and slave (bytes)
system.tol2bus14.pkt_count_system.cpu14.dcache.mem_side::system.l214.cpu_side     89805504                       # Packet count per connected master and slave (bytes)
system.tol2bus14.pkt_count_system.cpu14.itb.walker.dma::system.l214.cpu_side     62903778                       # Packet count per connected master and slave (bytes)
system.tol2bus14.pkt_count_system.cpu14.dtb.walker.dma::system.l214.cpu_side     10422666                       # Packet count per connected master and slave (bytes)
system.tol2bus14.pkt_count::total           473732029                       # Packet count per connected master and slave (bytes)
system.tol2bus14.pkt_size_system.cpu14.icache.mem_side::system.l214.cpu_side  13252259200                       # Cumulative packet size per connected master and slave (bytes)
system.tol2bus14.pkt_size_system.cpu14.dcache.mem_side::system.l214.cpu_side   2813763306                       # Cumulative packet size per connected master and slave (bytes)
system.tol2bus14.pkt_size_system.cpu14.itb.walker.dma::system.l214.cpu_side    251615112                       # Cumulative packet size per connected master and slave (bytes)
system.tol2bus14.pkt_size_system.cpu14.dtb.walker.dma::system.l214.cpu_side     41690664                       # Cumulative packet size per connected master and slave (bytes)
system.tol2bus14.pkt_size::total          16359328282                       # Cumulative packet size per connected master and slave (bytes)
system.tol2bus14.snoops                       8355826                       # Total snoops (count)
system.tol2bus14.snoopTraffic                68389568                       # Total snoop traffic (bytes)
system.tol2bus14.snoop_fanout::samples      178052735                       # Request fanout histogram
system.tol2bus14.snoop_fanout::mean          0.012265                       # Request fanout histogram
system.tol2bus14.snoop_fanout::stdev         0.110074                       # Request fanout histogram
system.tol2bus14.snoop_fanout::underflows            0      0.00%      0.00% # Request fanout histogram
system.tol2bus14.snoop_fanout::0            175868955     98.77%     98.77% # Request fanout histogram
system.tol2bus14.snoop_fanout::1              2183664      1.23%    100.00% # Request fanout histogram
system.tol2bus14.snoop_fanout::2                  116      0.00%    100.00% # Request fanout histogram
system.tol2bus14.snoop_fanout::overflows            0      0.00%    100.00% # Request fanout histogram
system.tol2bus14.snoop_fanout::min_value            0                       # Request fanout histogram
system.tol2bus14.snoop_fanout::max_value            2                       # Request fanout histogram
system.tol2bus14.snoop_fanout::total        178052735                       # Request fanout histogram
system.tol2bus14.directResponses                    0                       # auxiliar stat for checking how reasonable wireless model is
system.tol2bus15.snoop_filter.tot_requests     32782496                       # Total number of requests made to the snoop filter.
system.tol2bus15.snoop_filter.hit_single_requests     16423468                       # Number of requests hitting in the snoop filter with a single holder of the requested data.
system.tol2bus15.snoop_filter.hit_multi_requests          309                       # Number of requests hitting in the snoop filter with multiple (>1) holders of the requested data.
system.tol2bus15.snoop_filter.tot_snoops       910838                       # Total number of snoops made to the snoop filter.
system.tol2bus15.snoop_filter.hit_single_snoops       910710                       # Number of snoops hitting in the snoop filter with a single holder of the requested data.
system.tol2bus15.snoop_filter.hit_multi_snoops          128                       # Number of snoops hitting in the snoop filter with multiple (>1) holders of the requested data.
system.tol2bus15.pwrStateResidencyTicks::UNDEFINED 51637636911358496                       # Cumulative time (in ticks) in various power states
system.tol2bus15.trans_dist::ReadReq          5570172                       # Transaction distribution
system.tol2bus15.trans_dist::ReadResp        20972003                       # Transaction distribution
system.tol2bus15.trans_dist::WriteReq           11543                       # Transaction distribution
system.tol2bus15.trans_dist::WriteResp          11543                       # Transaction distribution
system.tol2bus15.trans_dist::WritebackDirty      2407772                       # Transaction distribution
system.tol2bus15.trans_dist::WritebackClean     11273880                       # Transaction distribution
system.tol2bus15.trans_dist::CleanEvict       2489328                       # Transaction distribution
system.tol2bus15.trans_dist::UpgradeReq        130543                       # Transaction distribution
system.tol2bus15.trans_dist::SCUpgradeReq       113278                       # Transaction distribution
system.tol2bus15.trans_dist::UpgradeResp       243821                       # Transaction distribution
system.tol2bus15.trans_dist::ReadExReq         736572                       # Transaction distribution
system.tol2bus15.trans_dist::ReadExResp        736572                       # Transaction distribution
system.tol2bus15.trans_dist::ReadCleanReq     11274392                       # Transaction distribution
system.tol2bus15.trans_dist::ReadSharedReq      4127439                       # Transaction distribution
system.tol2bus15.trans_dist::CleanSharedReq         3776                       # Transaction distribution
system.tol2bus15.trans_dist::CleanSharedResp         3776                       # Transaction distribution
system.tol2bus15.trans_dist::InvalidateReq       217129                       # Transaction distribution
system.tol2bus15.trans_dist::InvalidateResp       217129                       # Transaction distribution
system.tol2bus15.pkt_count_system.cpu15.icache.mem_side::system.l215.cpu_side     33822664                       # Packet count per connected master and slave (bytes)
system.tol2bus15.pkt_count_system.cpu15.dcache.mem_side::system.l215.cpu_side     15622902                       # Packet count per connected master and slave (bytes)
system.tol2bus15.pkt_count_system.cpu15.itb.walker.dma::system.l215.cpu_side      7129202                       # Packet count per connected master and slave (bytes)
system.tol2bus15.pkt_count_system.cpu15.dtb.walker.dma::system.l215.cpu_side      3965900                       # Packet count per connected master and slave (bytes)
system.tol2bus15.pkt_count::total            60540668                       # Packet count per connected master and slave (bytes)
system.tol2bus15.pkt_size_system.cpu15.icache.mem_side::system.l215.cpu_side   1443089408                       # Cumulative packet size per connected master and slave (bytes)
system.tol2bus15.pkt_size_system.cpu15.dcache.mem_side::system.l215.cpu_side    465530303                       # Cumulative packet size per connected master and slave (bytes)
system.tol2bus15.pkt_size_system.cpu15.itb.walker.dma::system.l215.cpu_side     28516808                       # Cumulative packet size per connected master and slave (bytes)
system.tol2bus15.pkt_size_system.cpu15.dtb.walker.dma::system.l215.cpu_side     15863600                       # Cumulative packet size per connected master and slave (bytes)
system.tol2bus15.pkt_size::total           1953000119                       # Cumulative packet size per connected master and slave (bytes)
system.tol2bus15.snoops                       4240907                       # Total snoops (count)
system.tol2bus15.snoopTraffic                 7649728                       # Total snoop traffic (bytes)
system.tol2bus15.snoop_fanout::samples       26123724                       # Request fanout histogram
system.tol2bus15.snoop_fanout::mean          0.035204                       # Request fanout histogram
system.tol2bus15.snoop_fanout::stdev         0.184322                       # Request fanout histogram
system.tol2bus15.snoop_fanout::underflows            0      0.00%      0.00% # Request fanout histogram
system.tol2bus15.snoop_fanout::0             25204190     96.48%     96.48% # Request fanout histogram
system.tol2bus15.snoop_fanout::1               919406      3.52%    100.00% # Request fanout histogram
system.tol2bus15.snoop_fanout::2                  128      0.00%    100.00% # Request fanout histogram
system.tol2bus15.snoop_fanout::overflows            0      0.00%    100.00% # Request fanout histogram
system.tol2bus15.snoop_fanout::min_value            0                       # Request fanout histogram
system.tol2bus15.snoop_fanout::max_value            2                       # Request fanout histogram
system.tol2bus15.snoop_fanout::total         26123724                       # Request fanout histogram
system.tol2bus15.directResponses                    0                       # auxiliar stat for checking how reasonable wireless model is

---------- End Simulation Statistics   ----------
