
---------- Begin Simulation Statistics ----------
sim_seconds                              16849.066588                       # Number of seconds simulated
sim_ticks                                16849066587757000                       # Number of ticks simulated
final_tick                               23596189642538000                       # Number of ticks from beginning of simulation (restored from checkpoints and never reset)
sim_freq                                 1000000000000                       # Frequency of simulated ticks
host_inst_rate                                2487297                       # Simulator instruction rate (inst/s)
host_op_rate                                  2796243                       # Simulator op (including micro ops) rate (op/s)
host_tick_rate                           2629069629000                       # Simulator tick rate (ticks/s)
host_mem_usage                                4923616                       # Number of bytes of host memory used
host_seconds                                  6408.76                       # Real time elapsed on the host
sim_insts                                 15940478596                       # Number of instructions simulated
sim_ops                                   17920440372                       # Number of ops (including micro ops) simulated
system.voltage_domain.voltage                       1                       # Voltage in Volts
system.clk_domain.clock                           625                       # Clock period in ticks
system.bootmem.pwrStateResidencyTicks::UNDEFINED 23596189642538000                       # Cumulative time (in ticks) in various power states
system.mem_ctrls.pwrStateResidencyTicks::UNDEFINED 23596189642538000                       # Cumulative time (in ticks) in various power states
system.mem_ctrls.bytes_read::cpu00.dtb.walker      1526976                       # Number of bytes read from this memory
system.mem_ctrls.bytes_read::cpu00.itb.walker       198208                       # Number of bytes read from this memory
system.mem_ctrls.bytes_read::cpu00.inst       6827264                       # Number of bytes read from this memory
system.mem_ctrls.bytes_read::cpu00.data     179431104                       # Number of bytes read from this memory
system.mem_ctrls.bytes_read::cpu01.dtb.walker       102400                       # Number of bytes read from this memory
system.mem_ctrls.bytes_read::cpu01.itb.walker        31040                       # Number of bytes read from this memory
system.mem_ctrls.bytes_read::cpu01.inst       2225344                       # Number of bytes read from this memory
system.mem_ctrls.bytes_read::cpu01.data      12638208                       # Number of bytes read from this memory
system.mem_ctrls.bytes_read::cpu02.dtb.walker        25408                       # Number of bytes read from this memory
system.mem_ctrls.bytes_read::cpu02.itb.walker        16064                       # Number of bytes read from this memory
system.mem_ctrls.bytes_read::cpu02.inst       1743680                       # Number of bytes read from this memory
system.mem_ctrls.bytes_read::cpu02.data       3515072                       # Number of bytes read from this memory
system.mem_ctrls.bytes_read::cpu03.dtb.walker        36736                       # Number of bytes read from this memory
system.mem_ctrls.bytes_read::cpu03.itb.walker        25344                       # Number of bytes read from this memory
system.mem_ctrls.bytes_read::cpu03.inst       2374720                       # Number of bytes read from this memory
system.mem_ctrls.bytes_read::cpu03.data       4578496                       # Number of bytes read from this memory
system.mem_ctrls.bytes_read::cpu04.dtb.walker        59520                       # Number of bytes read from this memory
system.mem_ctrls.bytes_read::cpu04.itb.walker        41344                       # Number of bytes read from this memory
system.mem_ctrls.bytes_read::cpu04.inst       2209984                       # Number of bytes read from this memory
system.mem_ctrls.bytes_read::cpu04.data       5200704                       # Number of bytes read from this memory
system.mem_ctrls.bytes_read::cpu05.dtb.walker        21760                       # Number of bytes read from this memory
system.mem_ctrls.bytes_read::cpu05.itb.walker        14720                       # Number of bytes read from this memory
system.mem_ctrls.bytes_read::cpu05.inst       1247040                       # Number of bytes read from this memory
system.mem_ctrls.bytes_read::cpu05.data       3094784                       # Number of bytes read from this memory
system.mem_ctrls.bytes_read::cpu06.dtb.walker        39744                       # Number of bytes read from this memory
system.mem_ctrls.bytes_read::cpu06.itb.walker        35648                       # Number of bytes read from this memory
system.mem_ctrls.bytes_read::cpu06.inst       1990592                       # Number of bytes read from this memory
system.mem_ctrls.bytes_read::cpu06.data       6181632                       # Number of bytes read from this memory
system.mem_ctrls.bytes_read::cpu07.dtb.walker        15936                       # Number of bytes read from this memory
system.mem_ctrls.bytes_read::cpu07.itb.walker        10112                       # Number of bytes read from this memory
system.mem_ctrls.bytes_read::cpu07.inst       1193664                       # Number of bytes read from this memory
system.mem_ctrls.bytes_read::cpu07.data       2333248                       # Number of bytes read from this memory
system.mem_ctrls.bytes_read::cpu08.dtb.walker      3721280                       # Number of bytes read from this memory
system.mem_ctrls.bytes_read::cpu08.itb.walker       100224                       # Number of bytes read from this memory
system.mem_ctrls.bytes_read::cpu08.inst       5224256                       # Number of bytes read from this memory
system.mem_ctrls.bytes_read::cpu08.data     173314688                       # Number of bytes read from this memory
system.mem_ctrls.bytes_read::cpu09.dtb.walker        18112                       # Number of bytes read from this memory
system.mem_ctrls.bytes_read::cpu09.itb.walker        15360                       # Number of bytes read from this memory
system.mem_ctrls.bytes_read::cpu09.inst       1251968                       # Number of bytes read from this memory
system.mem_ctrls.bytes_read::cpu09.data       2095936                       # Number of bytes read from this memory
system.mem_ctrls.bytes_read::cpu10.dtb.walker         3584                       # Number of bytes read from this memory
system.mem_ctrls.bytes_read::cpu10.itb.walker         1152                       # Number of bytes read from this memory
system.mem_ctrls.bytes_read::cpu10.inst        368128                       # Number of bytes read from this memory
system.mem_ctrls.bytes_read::cpu10.data        503104                       # Number of bytes read from this memory
system.mem_ctrls.bytes_read::cpu11.dtb.walker        23040                       # Number of bytes read from this memory
system.mem_ctrls.bytes_read::cpu11.itb.walker        20928                       # Number of bytes read from this memory
system.mem_ctrls.bytes_read::cpu11.inst       1436160                       # Number of bytes read from this memory
system.mem_ctrls.bytes_read::cpu11.data       4136704                       # Number of bytes read from this memory
system.mem_ctrls.bytes_read::cpu12.dtb.walker        18112                       # Number of bytes read from this memory
system.mem_ctrls.bytes_read::cpu12.itb.walker         6336                       # Number of bytes read from this memory
system.mem_ctrls.bytes_read::cpu12.inst       1161536                       # Number of bytes read from this memory
system.mem_ctrls.bytes_read::cpu12.data       2053312                       # Number of bytes read from this memory
system.mem_ctrls.bytes_read::cpu13.dtb.walker       521728                       # Number of bytes read from this memory
system.mem_ctrls.bytes_read::cpu13.itb.walker       917248                       # Number of bytes read from this memory
system.mem_ctrls.bytes_read::cpu13.inst      21202752                       # Number of bytes read from this memory
system.mem_ctrls.bytes_read::cpu13.data      14557440                       # Number of bytes read from this memory
system.mem_ctrls.bytes_read::cpu14.dtb.walker      1093056                       # Number of bytes read from this memory
system.mem_ctrls.bytes_read::cpu14.itb.walker       880320                       # Number of bytes read from this memory
system.mem_ctrls.bytes_read::cpu14.inst      18707520                       # Number of bytes read from this memory
system.mem_ctrls.bytes_read::cpu14.data      19551104                       # Number of bytes read from this memory
system.mem_ctrls.bytes_read::cpu15.dtb.walker      3597696                       # Number of bytes read from this memory
system.mem_ctrls.bytes_read::cpu15.itb.walker      3815040                       # Number of bytes read from this memory
system.mem_ctrls.bytes_read::cpu15.inst      76278272                       # Number of bytes read from this memory
system.mem_ctrls.bytes_read::cpu15.data      61816320                       # Number of bytes read from this memory
system.mem_ctrls.bytes_read::total          657398912                       # Number of bytes read from this memory
system.mem_ctrls.bytes_inst_read::cpu00.inst      6827264                       # Number of instructions bytes read from this memory
system.mem_ctrls.bytes_inst_read::cpu01.inst      2225344                       # Number of instructions bytes read from this memory
system.mem_ctrls.bytes_inst_read::cpu02.inst      1743680                       # Number of instructions bytes read from this memory
system.mem_ctrls.bytes_inst_read::cpu03.inst      2374720                       # Number of instructions bytes read from this memory
system.mem_ctrls.bytes_inst_read::cpu04.inst      2209984                       # Number of instructions bytes read from this memory
system.mem_ctrls.bytes_inst_read::cpu05.inst      1247040                       # Number of instructions bytes read from this memory
system.mem_ctrls.bytes_inst_read::cpu06.inst      1990592                       # Number of instructions bytes read from this memory
system.mem_ctrls.bytes_inst_read::cpu07.inst      1193664                       # Number of instructions bytes read from this memory
system.mem_ctrls.bytes_inst_read::cpu08.inst      5224256                       # Number of instructions bytes read from this memory
system.mem_ctrls.bytes_inst_read::cpu09.inst      1251968                       # Number of instructions bytes read from this memory
system.mem_ctrls.bytes_inst_read::cpu10.inst       368128                       # Number of instructions bytes read from this memory
system.mem_ctrls.bytes_inst_read::cpu11.inst      1436160                       # Number of instructions bytes read from this memory
system.mem_ctrls.bytes_inst_read::cpu12.inst      1161536                       # Number of instructions bytes read from this memory
system.mem_ctrls.bytes_inst_read::cpu13.inst     21202752                       # Number of instructions bytes read from this memory
system.mem_ctrls.bytes_inst_read::cpu14.inst     18707520                       # Number of instructions bytes read from this memory
system.mem_ctrls.bytes_inst_read::cpu15.inst     76278272                       # Number of instructions bytes read from this memory
system.mem_ctrls.bytes_inst_read::total     145442880                       # Number of instructions bytes read from this memory
system.mem_ctrls.bytes_written::writebacks    238771072                       # Number of bytes written to this memory
system.mem_ctrls.bytes_written::total       238771072                       # Number of bytes written to this memory
system.mem_ctrls.num_reads::cpu00.dtb.walker        23859                       # Number of read requests responded to by this memory
system.mem_ctrls.num_reads::cpu00.itb.walker         3097                       # Number of read requests responded to by this memory
system.mem_ctrls.num_reads::cpu00.inst         106676                       # Number of read requests responded to by this memory
system.mem_ctrls.num_reads::cpu00.data        2803611                       # Number of read requests responded to by this memory
system.mem_ctrls.num_reads::cpu01.dtb.walker         1600                       # Number of read requests responded to by this memory
system.mem_ctrls.num_reads::cpu01.itb.walker          485                       # Number of read requests responded to by this memory
system.mem_ctrls.num_reads::cpu01.inst          34771                       # Number of read requests responded to by this memory
system.mem_ctrls.num_reads::cpu01.data         197472                       # Number of read requests responded to by this memory
system.mem_ctrls.num_reads::cpu02.dtb.walker          397                       # Number of read requests responded to by this memory
system.mem_ctrls.num_reads::cpu02.itb.walker          251                       # Number of read requests responded to by this memory
system.mem_ctrls.num_reads::cpu02.inst          27245                       # Number of read requests responded to by this memory
system.mem_ctrls.num_reads::cpu02.data          54923                       # Number of read requests responded to by this memory
system.mem_ctrls.num_reads::cpu03.dtb.walker          574                       # Number of read requests responded to by this memory
system.mem_ctrls.num_reads::cpu03.itb.walker          396                       # Number of read requests responded to by this memory
system.mem_ctrls.num_reads::cpu03.inst          37105                       # Number of read requests responded to by this memory
system.mem_ctrls.num_reads::cpu03.data          71539                       # Number of read requests responded to by this memory
system.mem_ctrls.num_reads::cpu04.dtb.walker          930                       # Number of read requests responded to by this memory
system.mem_ctrls.num_reads::cpu04.itb.walker          646                       # Number of read requests responded to by this memory
system.mem_ctrls.num_reads::cpu04.inst          34531                       # Number of read requests responded to by this memory
system.mem_ctrls.num_reads::cpu04.data          81261                       # Number of read requests responded to by this memory
system.mem_ctrls.num_reads::cpu05.dtb.walker          340                       # Number of read requests responded to by this memory
system.mem_ctrls.num_reads::cpu05.itb.walker          230                       # Number of read requests responded to by this memory
system.mem_ctrls.num_reads::cpu05.inst          19485                       # Number of read requests responded to by this memory
system.mem_ctrls.num_reads::cpu05.data          48356                       # Number of read requests responded to by this memory
system.mem_ctrls.num_reads::cpu06.dtb.walker          621                       # Number of read requests responded to by this memory
system.mem_ctrls.num_reads::cpu06.itb.walker          557                       # Number of read requests responded to by this memory
system.mem_ctrls.num_reads::cpu06.inst          31103                       # Number of read requests responded to by this memory
system.mem_ctrls.num_reads::cpu06.data          96588                       # Number of read requests responded to by this memory
system.mem_ctrls.num_reads::cpu07.dtb.walker          249                       # Number of read requests responded to by this memory
system.mem_ctrls.num_reads::cpu07.itb.walker          158                       # Number of read requests responded to by this memory
system.mem_ctrls.num_reads::cpu07.inst          18651                       # Number of read requests responded to by this memory
system.mem_ctrls.num_reads::cpu07.data          36457                       # Number of read requests responded to by this memory
system.mem_ctrls.num_reads::cpu08.dtb.walker        58145                       # Number of read requests responded to by this memory
system.mem_ctrls.num_reads::cpu08.itb.walker         1566                       # Number of read requests responded to by this memory
system.mem_ctrls.num_reads::cpu08.inst          81629                       # Number of read requests responded to by this memory
system.mem_ctrls.num_reads::cpu08.data        2708042                       # Number of read requests responded to by this memory
system.mem_ctrls.num_reads::cpu09.dtb.walker          283                       # Number of read requests responded to by this memory
system.mem_ctrls.num_reads::cpu09.itb.walker          240                       # Number of read requests responded to by this memory
system.mem_ctrls.num_reads::cpu09.inst          19562                       # Number of read requests responded to by this memory
system.mem_ctrls.num_reads::cpu09.data          32749                       # Number of read requests responded to by this memory
system.mem_ctrls.num_reads::cpu10.dtb.walker           56                       # Number of read requests responded to by this memory
system.mem_ctrls.num_reads::cpu10.itb.walker           18                       # Number of read requests responded to by this memory
system.mem_ctrls.num_reads::cpu10.inst           5752                       # Number of read requests responded to by this memory
system.mem_ctrls.num_reads::cpu10.data           7861                       # Number of read requests responded to by this memory
system.mem_ctrls.num_reads::cpu11.dtb.walker          360                       # Number of read requests responded to by this memory
system.mem_ctrls.num_reads::cpu11.itb.walker          327                       # Number of read requests responded to by this memory
system.mem_ctrls.num_reads::cpu11.inst          22440                       # Number of read requests responded to by this memory
system.mem_ctrls.num_reads::cpu11.data          64636                       # Number of read requests responded to by this memory
system.mem_ctrls.num_reads::cpu12.dtb.walker          283                       # Number of read requests responded to by this memory
system.mem_ctrls.num_reads::cpu12.itb.walker           99                       # Number of read requests responded to by this memory
system.mem_ctrls.num_reads::cpu12.inst          18149                       # Number of read requests responded to by this memory
system.mem_ctrls.num_reads::cpu12.data          32083                       # Number of read requests responded to by this memory
system.mem_ctrls.num_reads::cpu13.dtb.walker         8152                       # Number of read requests responded to by this memory
system.mem_ctrls.num_reads::cpu13.itb.walker        14332                       # Number of read requests responded to by this memory
system.mem_ctrls.num_reads::cpu13.inst         331293                       # Number of read requests responded to by this memory
system.mem_ctrls.num_reads::cpu13.data         227460                       # Number of read requests responded to by this memory
system.mem_ctrls.num_reads::cpu14.dtb.walker        17079                       # Number of read requests responded to by this memory
system.mem_ctrls.num_reads::cpu14.itb.walker        13755                       # Number of read requests responded to by this memory
system.mem_ctrls.num_reads::cpu14.inst         292305                       # Number of read requests responded to by this memory
system.mem_ctrls.num_reads::cpu14.data         305486                       # Number of read requests responded to by this memory
system.mem_ctrls.num_reads::cpu15.dtb.walker        56214                       # Number of read requests responded to by this memory
system.mem_ctrls.num_reads::cpu15.itb.walker        59610                       # Number of read requests responded to by this memory
system.mem_ctrls.num_reads::cpu15.inst        1191848                       # Number of read requests responded to by this memory
system.mem_ctrls.num_reads::cpu15.data         965880                       # Number of read requests responded to by this memory
system.mem_ctrls.num_reads::total            10271858                       # Number of read requests responded to by this memory
system.mem_ctrls.num_writes::writebacks       3730798                       # Number of write requests responded to by this memory
system.mem_ctrls.num_writes::total            3730798                       # Number of write requests responded to by this memory
system.mem_ctrls.bw_read::cpu00.dtb.walker           91                       # Total read bandwidth from this memory (bytes/s)
system.mem_ctrls.bw_read::cpu00.itb.walker           12                       # Total read bandwidth from this memory (bytes/s)
system.mem_ctrls.bw_read::cpu00.inst              405                       # Total read bandwidth from this memory (bytes/s)
system.mem_ctrls.bw_read::cpu00.data            10649                       # Total read bandwidth from this memory (bytes/s)
system.mem_ctrls.bw_read::cpu01.dtb.walker            6                       # Total read bandwidth from this memory (bytes/s)
system.mem_ctrls.bw_read::cpu01.itb.walker            2                       # Total read bandwidth from this memory (bytes/s)
system.mem_ctrls.bw_read::cpu01.inst              132                       # Total read bandwidth from this memory (bytes/s)
system.mem_ctrls.bw_read::cpu01.data              750                       # Total read bandwidth from this memory (bytes/s)
system.mem_ctrls.bw_read::cpu02.dtb.walker            2                       # Total read bandwidth from this memory (bytes/s)
system.mem_ctrls.bw_read::cpu02.itb.walker            1                       # Total read bandwidth from this memory (bytes/s)
system.mem_ctrls.bw_read::cpu02.inst              103                       # Total read bandwidth from this memory (bytes/s)
system.mem_ctrls.bw_read::cpu02.data              209                       # Total read bandwidth from this memory (bytes/s)
system.mem_ctrls.bw_read::cpu03.dtb.walker            2                       # Total read bandwidth from this memory (bytes/s)
system.mem_ctrls.bw_read::cpu03.itb.walker            2                       # Total read bandwidth from this memory (bytes/s)
system.mem_ctrls.bw_read::cpu03.inst              141                       # Total read bandwidth from this memory (bytes/s)
system.mem_ctrls.bw_read::cpu03.data              272                       # Total read bandwidth from this memory (bytes/s)
system.mem_ctrls.bw_read::cpu04.dtb.walker            4                       # Total read bandwidth from this memory (bytes/s)
system.mem_ctrls.bw_read::cpu04.itb.walker            2                       # Total read bandwidth from this memory (bytes/s)
system.mem_ctrls.bw_read::cpu04.inst              131                       # Total read bandwidth from this memory (bytes/s)
system.mem_ctrls.bw_read::cpu04.data              309                       # Total read bandwidth from this memory (bytes/s)
system.mem_ctrls.bw_read::cpu05.dtb.walker            1                       # Total read bandwidth from this memory (bytes/s)
system.mem_ctrls.bw_read::cpu05.itb.walker            1                       # Total read bandwidth from this memory (bytes/s)
system.mem_ctrls.bw_read::cpu05.inst               74                       # Total read bandwidth from this memory (bytes/s)
system.mem_ctrls.bw_read::cpu05.data              184                       # Total read bandwidth from this memory (bytes/s)
system.mem_ctrls.bw_read::cpu06.dtb.walker            2                       # Total read bandwidth from this memory (bytes/s)
system.mem_ctrls.bw_read::cpu06.itb.walker            2                       # Total read bandwidth from this memory (bytes/s)
system.mem_ctrls.bw_read::cpu06.inst              118                       # Total read bandwidth from this memory (bytes/s)
system.mem_ctrls.bw_read::cpu06.data              367                       # Total read bandwidth from this memory (bytes/s)
system.mem_ctrls.bw_read::cpu07.dtb.walker            1                       # Total read bandwidth from this memory (bytes/s)
system.mem_ctrls.bw_read::cpu07.itb.walker            1                       # Total read bandwidth from this memory (bytes/s)
system.mem_ctrls.bw_read::cpu07.inst               71                       # Total read bandwidth from this memory (bytes/s)
system.mem_ctrls.bw_read::cpu07.data              138                       # Total read bandwidth from this memory (bytes/s)
system.mem_ctrls.bw_read::cpu08.dtb.walker          221                       # Total read bandwidth from this memory (bytes/s)
system.mem_ctrls.bw_read::cpu08.itb.walker            6                       # Total read bandwidth from this memory (bytes/s)
system.mem_ctrls.bw_read::cpu08.inst              310                       # Total read bandwidth from this memory (bytes/s)
system.mem_ctrls.bw_read::cpu08.data            10286                       # Total read bandwidth from this memory (bytes/s)
system.mem_ctrls.bw_read::cpu09.dtb.walker            1                       # Total read bandwidth from this memory (bytes/s)
system.mem_ctrls.bw_read::cpu09.itb.walker            1                       # Total read bandwidth from this memory (bytes/s)
system.mem_ctrls.bw_read::cpu09.inst               74                       # Total read bandwidth from this memory (bytes/s)
system.mem_ctrls.bw_read::cpu09.data              124                       # Total read bandwidth from this memory (bytes/s)
system.mem_ctrls.bw_read::cpu10.dtb.walker            0                       # Total read bandwidth from this memory (bytes/s)
system.mem_ctrls.bw_read::cpu10.itb.walker            0                       # Total read bandwidth from this memory (bytes/s)
system.mem_ctrls.bw_read::cpu10.inst               22                       # Total read bandwidth from this memory (bytes/s)
system.mem_ctrls.bw_read::cpu10.data               30                       # Total read bandwidth from this memory (bytes/s)
system.mem_ctrls.bw_read::cpu11.dtb.walker            1                       # Total read bandwidth from this memory (bytes/s)
system.mem_ctrls.bw_read::cpu11.itb.walker            1                       # Total read bandwidth from this memory (bytes/s)
system.mem_ctrls.bw_read::cpu11.inst               85                       # Total read bandwidth from this memory (bytes/s)
system.mem_ctrls.bw_read::cpu11.data              246                       # Total read bandwidth from this memory (bytes/s)
system.mem_ctrls.bw_read::cpu12.dtb.walker            1                       # Total read bandwidth from this memory (bytes/s)
system.mem_ctrls.bw_read::cpu12.itb.walker            0                       # Total read bandwidth from this memory (bytes/s)
system.mem_ctrls.bw_read::cpu12.inst               69                       # Total read bandwidth from this memory (bytes/s)
system.mem_ctrls.bw_read::cpu12.data              122                       # Total read bandwidth from this memory (bytes/s)
system.mem_ctrls.bw_read::cpu13.dtb.walker           31                       # Total read bandwidth from this memory (bytes/s)
system.mem_ctrls.bw_read::cpu13.itb.walker           54                       # Total read bandwidth from this memory (bytes/s)
system.mem_ctrls.bw_read::cpu13.inst             1258                       # Total read bandwidth from this memory (bytes/s)
system.mem_ctrls.bw_read::cpu13.data              864                       # Total read bandwidth from this memory (bytes/s)
system.mem_ctrls.bw_read::cpu14.dtb.walker           65                       # Total read bandwidth from this memory (bytes/s)
system.mem_ctrls.bw_read::cpu14.itb.walker           52                       # Total read bandwidth from this memory (bytes/s)
system.mem_ctrls.bw_read::cpu14.inst             1110                       # Total read bandwidth from this memory (bytes/s)
system.mem_ctrls.bw_read::cpu14.data             1160                       # Total read bandwidth from this memory (bytes/s)
system.mem_ctrls.bw_read::cpu15.dtb.walker          214                       # Total read bandwidth from this memory (bytes/s)
system.mem_ctrls.bw_read::cpu15.itb.walker          226                       # Total read bandwidth from this memory (bytes/s)
system.mem_ctrls.bw_read::cpu15.inst             4527                       # Total read bandwidth from this memory (bytes/s)
system.mem_ctrls.bw_read::cpu15.data             3669                       # Total read bandwidth from this memory (bytes/s)
system.mem_ctrls.bw_read::total                 39017                       # Total read bandwidth from this memory (bytes/s)
system.mem_ctrls.bw_inst_read::cpu00.inst          405                       # Instruction read bandwidth from this memory (bytes/s)
system.mem_ctrls.bw_inst_read::cpu01.inst          132                       # Instruction read bandwidth from this memory (bytes/s)
system.mem_ctrls.bw_inst_read::cpu02.inst          103                       # Instruction read bandwidth from this memory (bytes/s)
system.mem_ctrls.bw_inst_read::cpu03.inst          141                       # Instruction read bandwidth from this memory (bytes/s)
system.mem_ctrls.bw_inst_read::cpu04.inst          131                       # Instruction read bandwidth from this memory (bytes/s)
system.mem_ctrls.bw_inst_read::cpu05.inst           74                       # Instruction read bandwidth from this memory (bytes/s)
system.mem_ctrls.bw_inst_read::cpu06.inst          118                       # Instruction read bandwidth from this memory (bytes/s)
system.mem_ctrls.bw_inst_read::cpu07.inst           71                       # Instruction read bandwidth from this memory (bytes/s)
system.mem_ctrls.bw_inst_read::cpu08.inst          310                       # Instruction read bandwidth from this memory (bytes/s)
system.mem_ctrls.bw_inst_read::cpu09.inst           74                       # Instruction read bandwidth from this memory (bytes/s)
system.mem_ctrls.bw_inst_read::cpu10.inst           22                       # Instruction read bandwidth from this memory (bytes/s)
system.mem_ctrls.bw_inst_read::cpu11.inst           85                       # Instruction read bandwidth from this memory (bytes/s)
system.mem_ctrls.bw_inst_read::cpu12.inst           69                       # Instruction read bandwidth from this memory (bytes/s)
system.mem_ctrls.bw_inst_read::cpu13.inst         1258                       # Instruction read bandwidth from this memory (bytes/s)
system.mem_ctrls.bw_inst_read::cpu14.inst         1110                       # Instruction read bandwidth from this memory (bytes/s)
system.mem_ctrls.bw_inst_read::cpu15.inst         4527                       # Instruction read bandwidth from this memory (bytes/s)
system.mem_ctrls.bw_inst_read::total             8632                       # Instruction read bandwidth from this memory (bytes/s)
system.mem_ctrls.bw_write::writebacks           14171                       # Write bandwidth from this memory (bytes/s)
system.mem_ctrls.bw_write::total                14171                       # Write bandwidth from this memory (bytes/s)
system.mem_ctrls.bw_total::writebacks           14171                       # Total bandwidth to/from this memory (bytes/s)
system.mem_ctrls.bw_total::cpu00.dtb.walker           91                       # Total bandwidth to/from this memory (bytes/s)
system.mem_ctrls.bw_total::cpu00.itb.walker           12                       # Total bandwidth to/from this memory (bytes/s)
system.mem_ctrls.bw_total::cpu00.inst             405                       # Total bandwidth to/from this memory (bytes/s)
system.mem_ctrls.bw_total::cpu00.data           10649                       # Total bandwidth to/from this memory (bytes/s)
system.mem_ctrls.bw_total::cpu01.dtb.walker            6                       # Total bandwidth to/from this memory (bytes/s)
system.mem_ctrls.bw_total::cpu01.itb.walker            2                       # Total bandwidth to/from this memory (bytes/s)
system.mem_ctrls.bw_total::cpu01.inst             132                       # Total bandwidth to/from this memory (bytes/s)
system.mem_ctrls.bw_total::cpu01.data             750                       # Total bandwidth to/from this memory (bytes/s)
system.mem_ctrls.bw_total::cpu02.dtb.walker            2                       # Total bandwidth to/from this memory (bytes/s)
system.mem_ctrls.bw_total::cpu02.itb.walker            1                       # Total bandwidth to/from this memory (bytes/s)
system.mem_ctrls.bw_total::cpu02.inst             103                       # Total bandwidth to/from this memory (bytes/s)
system.mem_ctrls.bw_total::cpu02.data             209                       # Total bandwidth to/from this memory (bytes/s)
system.mem_ctrls.bw_total::cpu03.dtb.walker            2                       # Total bandwidth to/from this memory (bytes/s)
system.mem_ctrls.bw_total::cpu03.itb.walker            2                       # Total bandwidth to/from this memory (bytes/s)
system.mem_ctrls.bw_total::cpu03.inst             141                       # Total bandwidth to/from this memory (bytes/s)
system.mem_ctrls.bw_total::cpu03.data             272                       # Total bandwidth to/from this memory (bytes/s)
system.mem_ctrls.bw_total::cpu04.dtb.walker            4                       # Total bandwidth to/from this memory (bytes/s)
system.mem_ctrls.bw_total::cpu04.itb.walker            2                       # Total bandwidth to/from this memory (bytes/s)
system.mem_ctrls.bw_total::cpu04.inst             131                       # Total bandwidth to/from this memory (bytes/s)
system.mem_ctrls.bw_total::cpu04.data             309                       # Total bandwidth to/from this memory (bytes/s)
system.mem_ctrls.bw_total::cpu05.dtb.walker            1                       # Total bandwidth to/from this memory (bytes/s)
system.mem_ctrls.bw_total::cpu05.itb.walker            1                       # Total bandwidth to/from this memory (bytes/s)
system.mem_ctrls.bw_total::cpu05.inst              74                       # Total bandwidth to/from this memory (bytes/s)
system.mem_ctrls.bw_total::cpu05.data             184                       # Total bandwidth to/from this memory (bytes/s)
system.mem_ctrls.bw_total::cpu06.dtb.walker            2                       # Total bandwidth to/from this memory (bytes/s)
system.mem_ctrls.bw_total::cpu06.itb.walker            2                       # Total bandwidth to/from this memory (bytes/s)
system.mem_ctrls.bw_total::cpu06.inst             118                       # Total bandwidth to/from this memory (bytes/s)
system.mem_ctrls.bw_total::cpu06.data             367                       # Total bandwidth to/from this memory (bytes/s)
system.mem_ctrls.bw_total::cpu07.dtb.walker            1                       # Total bandwidth to/from this memory (bytes/s)
system.mem_ctrls.bw_total::cpu07.itb.walker            1                       # Total bandwidth to/from this memory (bytes/s)
system.mem_ctrls.bw_total::cpu07.inst              71                       # Total bandwidth to/from this memory (bytes/s)
system.mem_ctrls.bw_total::cpu07.data             138                       # Total bandwidth to/from this memory (bytes/s)
system.mem_ctrls.bw_total::cpu08.dtb.walker          221                       # Total bandwidth to/from this memory (bytes/s)
system.mem_ctrls.bw_total::cpu08.itb.walker            6                       # Total bandwidth to/from this memory (bytes/s)
system.mem_ctrls.bw_total::cpu08.inst             310                       # Total bandwidth to/from this memory (bytes/s)
system.mem_ctrls.bw_total::cpu08.data           10286                       # Total bandwidth to/from this memory (bytes/s)
system.mem_ctrls.bw_total::cpu09.dtb.walker            1                       # Total bandwidth to/from this memory (bytes/s)
system.mem_ctrls.bw_total::cpu09.itb.walker            1                       # Total bandwidth to/from this memory (bytes/s)
system.mem_ctrls.bw_total::cpu09.inst              74                       # Total bandwidth to/from this memory (bytes/s)
system.mem_ctrls.bw_total::cpu09.data             124                       # Total bandwidth to/from this memory (bytes/s)
system.mem_ctrls.bw_total::cpu10.dtb.walker            0                       # Total bandwidth to/from this memory (bytes/s)
system.mem_ctrls.bw_total::cpu10.itb.walker            0                       # Total bandwidth to/from this memory (bytes/s)
system.mem_ctrls.bw_total::cpu10.inst              22                       # Total bandwidth to/from this memory (bytes/s)
system.mem_ctrls.bw_total::cpu10.data              30                       # Total bandwidth to/from this memory (bytes/s)
system.mem_ctrls.bw_total::cpu11.dtb.walker            1                       # Total bandwidth to/from this memory (bytes/s)
system.mem_ctrls.bw_total::cpu11.itb.walker            1                       # Total bandwidth to/from this memory (bytes/s)
system.mem_ctrls.bw_total::cpu11.inst              85                       # Total bandwidth to/from this memory (bytes/s)
system.mem_ctrls.bw_total::cpu11.data             246                       # Total bandwidth to/from this memory (bytes/s)
system.mem_ctrls.bw_total::cpu12.dtb.walker            1                       # Total bandwidth to/from this memory (bytes/s)
system.mem_ctrls.bw_total::cpu12.itb.walker            0                       # Total bandwidth to/from this memory (bytes/s)
system.mem_ctrls.bw_total::cpu12.inst              69                       # Total bandwidth to/from this memory (bytes/s)
system.mem_ctrls.bw_total::cpu12.data             122                       # Total bandwidth to/from this memory (bytes/s)
system.mem_ctrls.bw_total::cpu13.dtb.walker           31                       # Total bandwidth to/from this memory (bytes/s)
system.mem_ctrls.bw_total::cpu13.itb.walker           54                       # Total bandwidth to/from this memory (bytes/s)
system.mem_ctrls.bw_total::cpu13.inst            1258                       # Total bandwidth to/from this memory (bytes/s)
system.mem_ctrls.bw_total::cpu13.data             864                       # Total bandwidth to/from this memory (bytes/s)
system.mem_ctrls.bw_total::cpu14.dtb.walker           65                       # Total bandwidth to/from this memory (bytes/s)
system.mem_ctrls.bw_total::cpu14.itb.walker           52                       # Total bandwidth to/from this memory (bytes/s)
system.mem_ctrls.bw_total::cpu14.inst            1110                       # Total bandwidth to/from this memory (bytes/s)
system.mem_ctrls.bw_total::cpu14.data            1160                       # Total bandwidth to/from this memory (bytes/s)
system.mem_ctrls.bw_total::cpu15.dtb.walker          214                       # Total bandwidth to/from this memory (bytes/s)
system.mem_ctrls.bw_total::cpu15.itb.walker          226                       # Total bandwidth to/from this memory (bytes/s)
system.mem_ctrls.bw_total::cpu15.inst            4527                       # Total bandwidth to/from this memory (bytes/s)
system.mem_ctrls.bw_total::cpu15.data            3669                       # Total bandwidth to/from this memory (bytes/s)
system.mem_ctrls.bw_total::total                53188                       # Total bandwidth to/from this memory (bytes/s)
system.mem_ctrls.readReqs                           0                       # Number of read requests accepted
system.mem_ctrls.writeReqs                          0                       # Number of write requests accepted
system.mem_ctrls.readBursts                         0                       # Number of DRAM read bursts, including those serviced by the write queue
system.mem_ctrls.writeBursts                        0                       # Number of DRAM write bursts, including those merged in the write queue
system.mem_ctrls.bytesReadDRAM                      0                       # Total number of bytes read from DRAM
system.mem_ctrls.bytesReadWrQ                       0                       # Total number of bytes read from write queue
system.mem_ctrls.bytesWritten                       0                       # Total number of bytes written to DRAM
system.mem_ctrls.bytesReadSys                       0                       # Total read bytes from the system interface side
system.mem_ctrls.bytesWrittenSys                    0                       # Total written bytes from the system interface side
system.mem_ctrls.servicedByWrQ                      0                       # Number of DRAM read bursts serviced by the write queue
system.mem_ctrls.mergedWrBursts                     0                       # Number of DRAM write bursts merged with an existing one
system.mem_ctrls.neitherReadNorWriteReqs            0                       # Number of requests that are neither read nor write
system.mem_ctrls.perBankRdBursts::0                 0                       # Per bank write bursts
system.mem_ctrls.perBankRdBursts::1                 0                       # Per bank write bursts
system.mem_ctrls.perBankRdBursts::2                 0                       # Per bank write bursts
system.mem_ctrls.perBankRdBursts::3                 0                       # Per bank write bursts
system.mem_ctrls.perBankRdBursts::4                 0                       # Per bank write bursts
system.mem_ctrls.perBankRdBursts::5                 0                       # Per bank write bursts
system.mem_ctrls.perBankRdBursts::6                 0                       # Per bank write bursts
system.mem_ctrls.perBankRdBursts::7                 0                       # Per bank write bursts
system.mem_ctrls.perBankRdBursts::8                 0                       # Per bank write bursts
system.mem_ctrls.perBankRdBursts::9                 0                       # Per bank write bursts
system.mem_ctrls.perBankRdBursts::10                0                       # Per bank write bursts
system.mem_ctrls.perBankRdBursts::11                0                       # Per bank write bursts
system.mem_ctrls.perBankRdBursts::12                0                       # Per bank write bursts
system.mem_ctrls.perBankRdBursts::13                0                       # Per bank write bursts
system.mem_ctrls.perBankRdBursts::14                0                       # Per bank write bursts
system.mem_ctrls.perBankRdBursts::15                0                       # Per bank write bursts
system.mem_ctrls.perBankRdBursts::16                0                       # Per bank write bursts
system.mem_ctrls.perBankRdBursts::17                0                       # Per bank write bursts
system.mem_ctrls.perBankRdBursts::18                0                       # Per bank write bursts
system.mem_ctrls.perBankRdBursts::19                0                       # Per bank write bursts
system.mem_ctrls.perBankRdBursts::20                0                       # Per bank write bursts
system.mem_ctrls.perBankRdBursts::21                0                       # Per bank write bursts
system.mem_ctrls.perBankRdBursts::22                0                       # Per bank write bursts
system.mem_ctrls.perBankRdBursts::23                0                       # Per bank write bursts
system.mem_ctrls.perBankRdBursts::24                0                       # Per bank write bursts
system.mem_ctrls.perBankRdBursts::25                0                       # Per bank write bursts
system.mem_ctrls.perBankRdBursts::26                0                       # Per bank write bursts
system.mem_ctrls.perBankRdBursts::27                0                       # Per bank write bursts
system.mem_ctrls.perBankRdBursts::28                0                       # Per bank write bursts
system.mem_ctrls.perBankRdBursts::29                0                       # Per bank write bursts
system.mem_ctrls.perBankRdBursts::30                0                       # Per bank write bursts
system.mem_ctrls.perBankRdBursts::31                0                       # Per bank write bursts
system.mem_ctrls.perBankWrBursts::0                 0                       # Per bank write bursts
system.mem_ctrls.perBankWrBursts::1                 0                       # Per bank write bursts
system.mem_ctrls.perBankWrBursts::2                 0                       # Per bank write bursts
system.mem_ctrls.perBankWrBursts::3                 0                       # Per bank write bursts
system.mem_ctrls.perBankWrBursts::4                 0                       # Per bank write bursts
system.mem_ctrls.perBankWrBursts::5                 0                       # Per bank write bursts
system.mem_ctrls.perBankWrBursts::6                 0                       # Per bank write bursts
system.mem_ctrls.perBankWrBursts::7                 0                       # Per bank write bursts
system.mem_ctrls.perBankWrBursts::8                 0                       # Per bank write bursts
system.mem_ctrls.perBankWrBursts::9                 0                       # Per bank write bursts
system.mem_ctrls.perBankWrBursts::10                0                       # Per bank write bursts
system.mem_ctrls.perBankWrBursts::11                0                       # Per bank write bursts
system.mem_ctrls.perBankWrBursts::12                0                       # Per bank write bursts
system.mem_ctrls.perBankWrBursts::13                0                       # Per bank write bursts
system.mem_ctrls.perBankWrBursts::14                0                       # Per bank write bursts
system.mem_ctrls.perBankWrBursts::15                0                       # Per bank write bursts
system.mem_ctrls.perBankWrBursts::16                0                       # Per bank write bursts
system.mem_ctrls.perBankWrBursts::17                0                       # Per bank write bursts
system.mem_ctrls.perBankWrBursts::18                0                       # Per bank write bursts
system.mem_ctrls.perBankWrBursts::19                0                       # Per bank write bursts
system.mem_ctrls.perBankWrBursts::20                0                       # Per bank write bursts
system.mem_ctrls.perBankWrBursts::21                0                       # Per bank write bursts
system.mem_ctrls.perBankWrBursts::22                0                       # Per bank write bursts
system.mem_ctrls.perBankWrBursts::23                0                       # Per bank write bursts
system.mem_ctrls.perBankWrBursts::24                0                       # Per bank write bursts
system.mem_ctrls.perBankWrBursts::25                0                       # Per bank write bursts
system.mem_ctrls.perBankWrBursts::26                0                       # Per bank write bursts
system.mem_ctrls.perBankWrBursts::27                0                       # Per bank write bursts
system.mem_ctrls.perBankWrBursts::28                0                       # Per bank write bursts
system.mem_ctrls.perBankWrBursts::29                0                       # Per bank write bursts
system.mem_ctrls.perBankWrBursts::30                0                       # Per bank write bursts
system.mem_ctrls.perBankWrBursts::31                0                       # Per bank write bursts
system.mem_ctrls.numRdRetry                         0                       # Number of times read queue was full causing retry
system.mem_ctrls.numWrRetry                         0                       # Number of times write queue was full causing retry
system.mem_ctrls.totGap                             0                       # Total gap between requests
system.mem_ctrls.readPktSize::0                     0                       # Read request sizes (log2)
system.mem_ctrls.readPktSize::1                     0                       # Read request sizes (log2)
system.mem_ctrls.readPktSize::2                     0                       # Read request sizes (log2)
system.mem_ctrls.readPktSize::3                     0                       # Read request sizes (log2)
system.mem_ctrls.readPktSize::4                     0                       # Read request sizes (log2)
system.mem_ctrls.readPktSize::5                     0                       # Read request sizes (log2)
system.mem_ctrls.readPktSize::6                     0                       # Read request sizes (log2)
system.mem_ctrls.writePktSize::0                    0                       # Write request sizes (log2)
system.mem_ctrls.writePktSize::1                    0                       # Write request sizes (log2)
system.mem_ctrls.writePktSize::2                    0                       # Write request sizes (log2)
system.mem_ctrls.writePktSize::3                    0                       # Write request sizes (log2)
system.mem_ctrls.writePktSize::4                    0                       # Write request sizes (log2)
system.mem_ctrls.writePktSize::5                    0                       # Write request sizes (log2)
system.mem_ctrls.writePktSize::6                    0                       # Write request sizes (log2)
system.mem_ctrls.rdQLenPdf::0                       0                       # What read queue length does an incoming req see
system.mem_ctrls.rdQLenPdf::1                       0                       # What read queue length does an incoming req see
system.mem_ctrls.rdQLenPdf::2                       0                       # What read queue length does an incoming req see
system.mem_ctrls.rdQLenPdf::3                       0                       # What read queue length does an incoming req see
system.mem_ctrls.rdQLenPdf::4                       0                       # What read queue length does an incoming req see
system.mem_ctrls.rdQLenPdf::5                       0                       # What read queue length does an incoming req see
system.mem_ctrls.rdQLenPdf::6                       0                       # What read queue length does an incoming req see
system.mem_ctrls.rdQLenPdf::7                       0                       # What read queue length does an incoming req see
system.mem_ctrls.rdQLenPdf::8                       0                       # What read queue length does an incoming req see
system.mem_ctrls.rdQLenPdf::9                       0                       # What read queue length does an incoming req see
system.mem_ctrls.rdQLenPdf::10                      0                       # What read queue length does an incoming req see
system.mem_ctrls.rdQLenPdf::11                      0                       # What read queue length does an incoming req see
system.mem_ctrls.rdQLenPdf::12                      0                       # What read queue length does an incoming req see
system.mem_ctrls.rdQLenPdf::13                      0                       # What read queue length does an incoming req see
system.mem_ctrls.rdQLenPdf::14                      0                       # What read queue length does an incoming req see
system.mem_ctrls.rdQLenPdf::15                      0                       # What read queue length does an incoming req see
system.mem_ctrls.rdQLenPdf::16                      0                       # What read queue length does an incoming req see
system.mem_ctrls.rdQLenPdf::17                      0                       # What read queue length does an incoming req see
system.mem_ctrls.rdQLenPdf::18                      0                       # What read queue length does an incoming req see
system.mem_ctrls.rdQLenPdf::19                      0                       # What read queue length does an incoming req see
system.mem_ctrls.rdQLenPdf::20                      0                       # What read queue length does an incoming req see
system.mem_ctrls.rdQLenPdf::21                      0                       # What read queue length does an incoming req see
system.mem_ctrls.rdQLenPdf::22                      0                       # What read queue length does an incoming req see
system.mem_ctrls.rdQLenPdf::23                      0                       # What read queue length does an incoming req see
system.mem_ctrls.rdQLenPdf::24                      0                       # What read queue length does an incoming req see
system.mem_ctrls.rdQLenPdf::25                      0                       # What read queue length does an incoming req see
system.mem_ctrls.rdQLenPdf::26                      0                       # What read queue length does an incoming req see
system.mem_ctrls.rdQLenPdf::27                      0                       # What read queue length does an incoming req see
system.mem_ctrls.rdQLenPdf::28                      0                       # What read queue length does an incoming req see
system.mem_ctrls.rdQLenPdf::29                      0                       # What read queue length does an incoming req see
system.mem_ctrls.rdQLenPdf::30                      0                       # What read queue length does an incoming req see
system.mem_ctrls.rdQLenPdf::31                      0                       # What read queue length does an incoming req see
system.mem_ctrls.rdQLenPdf::32                      0                       # What read queue length does an incoming req see
system.mem_ctrls.rdQLenPdf::33                      0                       # What read queue length does an incoming req see
system.mem_ctrls.rdQLenPdf::34                      0                       # What read queue length does an incoming req see
system.mem_ctrls.rdQLenPdf::35                      0                       # What read queue length does an incoming req see
system.mem_ctrls.rdQLenPdf::36                      0                       # What read queue length does an incoming req see
system.mem_ctrls.rdQLenPdf::37                      0                       # What read queue length does an incoming req see
system.mem_ctrls.rdQLenPdf::38                      0                       # What read queue length does an incoming req see
system.mem_ctrls.rdQLenPdf::39                      0                       # What read queue length does an incoming req see
system.mem_ctrls.rdQLenPdf::40                      0                       # What read queue length does an incoming req see
system.mem_ctrls.rdQLenPdf::41                      0                       # What read queue length does an incoming req see
system.mem_ctrls.rdQLenPdf::42                      0                       # What read queue length does an incoming req see
system.mem_ctrls.rdQLenPdf::43                      0                       # What read queue length does an incoming req see
system.mem_ctrls.rdQLenPdf::44                      0                       # What read queue length does an incoming req see
system.mem_ctrls.rdQLenPdf::45                      0                       # What read queue length does an incoming req see
system.mem_ctrls.rdQLenPdf::46                      0                       # What read queue length does an incoming req see
system.mem_ctrls.rdQLenPdf::47                      0                       # What read queue length does an incoming req see
system.mem_ctrls.rdQLenPdf::48                      0                       # What read queue length does an incoming req see
system.mem_ctrls.rdQLenPdf::49                      0                       # What read queue length does an incoming req see
system.mem_ctrls.rdQLenPdf::50                      0                       # What read queue length does an incoming req see
system.mem_ctrls.rdQLenPdf::51                      0                       # What read queue length does an incoming req see
system.mem_ctrls.rdQLenPdf::52                      0                       # What read queue length does an incoming req see
system.mem_ctrls.rdQLenPdf::53                      0                       # What read queue length does an incoming req see
system.mem_ctrls.rdQLenPdf::54                      0                       # What read queue length does an incoming req see
system.mem_ctrls.rdQLenPdf::55                      0                       # What read queue length does an incoming req see
system.mem_ctrls.rdQLenPdf::56                      0                       # What read queue length does an incoming req see
system.mem_ctrls.rdQLenPdf::57                      0                       # What read queue length does an incoming req see
system.mem_ctrls.rdQLenPdf::58                      0                       # What read queue length does an incoming req see
system.mem_ctrls.rdQLenPdf::59                      0                       # What read queue length does an incoming req see
system.mem_ctrls.rdQLenPdf::60                      0                       # What read queue length does an incoming req see
system.mem_ctrls.rdQLenPdf::61                      0                       # What read queue length does an incoming req see
system.mem_ctrls.rdQLenPdf::62                      0                       # What read queue length does an incoming req see
system.mem_ctrls.rdQLenPdf::63                      0                       # What read queue length does an incoming req see
system.mem_ctrls.wrQLenPdf::0                       0                       # What write queue length does an incoming req see
system.mem_ctrls.wrQLenPdf::1                       0                       # What write queue length does an incoming req see
system.mem_ctrls.wrQLenPdf::2                       0                       # What write queue length does an incoming req see
system.mem_ctrls.wrQLenPdf::3                       0                       # What write queue length does an incoming req see
system.mem_ctrls.wrQLenPdf::4                       0                       # What write queue length does an incoming req see
system.mem_ctrls.wrQLenPdf::5                       0                       # What write queue length does an incoming req see
system.mem_ctrls.wrQLenPdf::6                       0                       # What write queue length does an incoming req see
system.mem_ctrls.wrQLenPdf::7                       0                       # What write queue length does an incoming req see
system.mem_ctrls.wrQLenPdf::8                       0                       # What write queue length does an incoming req see
system.mem_ctrls.wrQLenPdf::9                       0                       # What write queue length does an incoming req see
system.mem_ctrls.wrQLenPdf::10                      0                       # What write queue length does an incoming req see
system.mem_ctrls.wrQLenPdf::11                      0                       # What write queue length does an incoming req see
system.mem_ctrls.wrQLenPdf::12                      0                       # What write queue length does an incoming req see
system.mem_ctrls.wrQLenPdf::13                      0                       # What write queue length does an incoming req see
system.mem_ctrls.wrQLenPdf::14                      0                       # What write queue length does an incoming req see
system.mem_ctrls.wrQLenPdf::15                      0                       # What write queue length does an incoming req see
system.mem_ctrls.wrQLenPdf::16                      0                       # What write queue length does an incoming req see
system.mem_ctrls.wrQLenPdf::17                      0                       # What write queue length does an incoming req see
system.mem_ctrls.wrQLenPdf::18                      0                       # What write queue length does an incoming req see
system.mem_ctrls.wrQLenPdf::19                      0                       # What write queue length does an incoming req see
system.mem_ctrls.wrQLenPdf::20                      0                       # What write queue length does an incoming req see
system.mem_ctrls.wrQLenPdf::21                      0                       # What write queue length does an incoming req see
system.mem_ctrls.wrQLenPdf::22                      0                       # What write queue length does an incoming req see
system.mem_ctrls.wrQLenPdf::23                      0                       # What write queue length does an incoming req see
system.mem_ctrls.wrQLenPdf::24                      0                       # What write queue length does an incoming req see
system.mem_ctrls.wrQLenPdf::25                      0                       # What write queue length does an incoming req see
system.mem_ctrls.wrQLenPdf::26                      0                       # What write queue length does an incoming req see
system.mem_ctrls.wrQLenPdf::27                      0                       # What write queue length does an incoming req see
system.mem_ctrls.wrQLenPdf::28                      0                       # What write queue length does an incoming req see
system.mem_ctrls.wrQLenPdf::29                      0                       # What write queue length does an incoming req see
system.mem_ctrls.wrQLenPdf::30                      0                       # What write queue length does an incoming req see
system.mem_ctrls.wrQLenPdf::31                      0                       # What write queue length does an incoming req see
system.mem_ctrls.wrQLenPdf::32                      0                       # What write queue length does an incoming req see
system.mem_ctrls.wrQLenPdf::33                      0                       # What write queue length does an incoming req see
system.mem_ctrls.wrQLenPdf::34                      0                       # What write queue length does an incoming req see
system.mem_ctrls.wrQLenPdf::35                      0                       # What write queue length does an incoming req see
system.mem_ctrls.wrQLenPdf::36                      0                       # What write queue length does an incoming req see
system.mem_ctrls.wrQLenPdf::37                      0                       # What write queue length does an incoming req see
system.mem_ctrls.wrQLenPdf::38                      0                       # What write queue length does an incoming req see
system.mem_ctrls.wrQLenPdf::39                      0                       # What write queue length does an incoming req see
system.mem_ctrls.wrQLenPdf::40                      0                       # What write queue length does an incoming req see
system.mem_ctrls.wrQLenPdf::41                      0                       # What write queue length does an incoming req see
system.mem_ctrls.wrQLenPdf::42                      0                       # What write queue length does an incoming req see
system.mem_ctrls.wrQLenPdf::43                      0                       # What write queue length does an incoming req see
system.mem_ctrls.wrQLenPdf::44                      0                       # What write queue length does an incoming req see
system.mem_ctrls.wrQLenPdf::45                      0                       # What write queue length does an incoming req see
system.mem_ctrls.wrQLenPdf::46                      0                       # What write queue length does an incoming req see
system.mem_ctrls.wrQLenPdf::47                      0                       # What write queue length does an incoming req see
system.mem_ctrls.wrQLenPdf::48                      0                       # What write queue length does an incoming req see
system.mem_ctrls.wrQLenPdf::49                      0                       # What write queue length does an incoming req see
system.mem_ctrls.wrQLenPdf::50                      0                       # What write queue length does an incoming req see
system.mem_ctrls.wrQLenPdf::51                      0                       # What write queue length does an incoming req see
system.mem_ctrls.wrQLenPdf::52                      0                       # What write queue length does an incoming req see
system.mem_ctrls.wrQLenPdf::53                      0                       # What write queue length does an incoming req see
system.mem_ctrls.wrQLenPdf::54                      0                       # What write queue length does an incoming req see
system.mem_ctrls.wrQLenPdf::55                      0                       # What write queue length does an incoming req see
system.mem_ctrls.wrQLenPdf::56                      0                       # What write queue length does an incoming req see
system.mem_ctrls.wrQLenPdf::57                      0                       # What write queue length does an incoming req see
system.mem_ctrls.wrQLenPdf::58                      0                       # What write queue length does an incoming req see
system.mem_ctrls.wrQLenPdf::59                      0                       # What write queue length does an incoming req see
system.mem_ctrls.wrQLenPdf::60                      0                       # What write queue length does an incoming req see
system.mem_ctrls.wrQLenPdf::61                      0                       # What write queue length does an incoming req see
system.mem_ctrls.wrQLenPdf::62                      0                       # What write queue length does an incoming req see
system.mem_ctrls.wrQLenPdf::63                      0                       # What write queue length does an incoming req see
system.mem_ctrls.wrQLenPdf::64                      0                       # What write queue length does an incoming req see
system.mem_ctrls.wrQLenPdf::65                      0                       # What write queue length does an incoming req see
system.mem_ctrls.wrQLenPdf::66                      0                       # What write queue length does an incoming req see
system.mem_ctrls.wrQLenPdf::67                      0                       # What write queue length does an incoming req see
system.mem_ctrls.wrQLenPdf::68                      0                       # What write queue length does an incoming req see
system.mem_ctrls.wrQLenPdf::69                      0                       # What write queue length does an incoming req see
system.mem_ctrls.wrQLenPdf::70                      0                       # What write queue length does an incoming req see
system.mem_ctrls.wrQLenPdf::71                      0                       # What write queue length does an incoming req see
system.mem_ctrls.wrQLenPdf::72                      0                       # What write queue length does an incoming req see
system.mem_ctrls.wrQLenPdf::73                      0                       # What write queue length does an incoming req see
system.mem_ctrls.wrQLenPdf::74                      0                       # What write queue length does an incoming req see
system.mem_ctrls.wrQLenPdf::75                      0                       # What write queue length does an incoming req see
system.mem_ctrls.wrQLenPdf::76                      0                       # What write queue length does an incoming req see
system.mem_ctrls.wrQLenPdf::77                      0                       # What write queue length does an incoming req see
system.mem_ctrls.wrQLenPdf::78                      0                       # What write queue length does an incoming req see
system.mem_ctrls.wrQLenPdf::79                      0                       # What write queue length does an incoming req see
system.mem_ctrls.wrQLenPdf::80                      0                       # What write queue length does an incoming req see
system.mem_ctrls.wrQLenPdf::81                      0                       # What write queue length does an incoming req see
system.mem_ctrls.wrQLenPdf::82                      0                       # What write queue length does an incoming req see
system.mem_ctrls.wrQLenPdf::83                      0                       # What write queue length does an incoming req see
system.mem_ctrls.wrQLenPdf::84                      0                       # What write queue length does an incoming req see
system.mem_ctrls.wrQLenPdf::85                      0                       # What write queue length does an incoming req see
system.mem_ctrls.wrQLenPdf::86                      0                       # What write queue length does an incoming req see
system.mem_ctrls.wrQLenPdf::87                      0                       # What write queue length does an incoming req see
system.mem_ctrls.wrQLenPdf::88                      0                       # What write queue length does an incoming req see
system.mem_ctrls.wrQLenPdf::89                      0                       # What write queue length does an incoming req see
system.mem_ctrls.wrQLenPdf::90                      0                       # What write queue length does an incoming req see
system.mem_ctrls.wrQLenPdf::91                      0                       # What write queue length does an incoming req see
system.mem_ctrls.wrQLenPdf::92                      0                       # What write queue length does an incoming req see
system.mem_ctrls.wrQLenPdf::93                      0                       # What write queue length does an incoming req see
system.mem_ctrls.wrQLenPdf::94                      0                       # What write queue length does an incoming req see
system.mem_ctrls.wrQLenPdf::95                      0                       # What write queue length does an incoming req see
system.mem_ctrls.wrQLenPdf::96                      0                       # What write queue length does an incoming req see
system.mem_ctrls.wrQLenPdf::97                      0                       # What write queue length does an incoming req see
system.mem_ctrls.wrQLenPdf::98                      0                       # What write queue length does an incoming req see
system.mem_ctrls.wrQLenPdf::99                      0                       # What write queue length does an incoming req see
system.mem_ctrls.wrQLenPdf::100                     0                       # What write queue length does an incoming req see
system.mem_ctrls.wrQLenPdf::101                     0                       # What write queue length does an incoming req see
system.mem_ctrls.wrQLenPdf::102                     0                       # What write queue length does an incoming req see
system.mem_ctrls.wrQLenPdf::103                     0                       # What write queue length does an incoming req see
system.mem_ctrls.wrQLenPdf::104                     0                       # What write queue length does an incoming req see
system.mem_ctrls.wrQLenPdf::105                     0                       # What write queue length does an incoming req see
system.mem_ctrls.wrQLenPdf::106                     0                       # What write queue length does an incoming req see
system.mem_ctrls.wrQLenPdf::107                     0                       # What write queue length does an incoming req see
system.mem_ctrls.wrQLenPdf::108                     0                       # What write queue length does an incoming req see
system.mem_ctrls.wrQLenPdf::109                     0                       # What write queue length does an incoming req see
system.mem_ctrls.wrQLenPdf::110                     0                       # What write queue length does an incoming req see
system.mem_ctrls.wrQLenPdf::111                     0                       # What write queue length does an incoming req see
system.mem_ctrls.wrQLenPdf::112                     0                       # What write queue length does an incoming req see
system.mem_ctrls.wrQLenPdf::113                     0                       # What write queue length does an incoming req see
system.mem_ctrls.wrQLenPdf::114                     0                       # What write queue length does an incoming req see
system.mem_ctrls.wrQLenPdf::115                     0                       # What write queue length does an incoming req see
system.mem_ctrls.wrQLenPdf::116                     0                       # What write queue length does an incoming req see
system.mem_ctrls.wrQLenPdf::117                     0                       # What write queue length does an incoming req see
system.mem_ctrls.wrQLenPdf::118                     0                       # What write queue length does an incoming req see
system.mem_ctrls.wrQLenPdf::119                     0                       # What write queue length does an incoming req see
system.mem_ctrls.wrQLenPdf::120                     0                       # What write queue length does an incoming req see
system.mem_ctrls.wrQLenPdf::121                     0                       # What write queue length does an incoming req see
system.mem_ctrls.wrQLenPdf::122                     0                       # What write queue length does an incoming req see
system.mem_ctrls.wrQLenPdf::123                     0                       # What write queue length does an incoming req see
system.mem_ctrls.wrQLenPdf::124                     0                       # What write queue length does an incoming req see
system.mem_ctrls.wrQLenPdf::125                     0                       # What write queue length does an incoming req see
system.mem_ctrls.wrQLenPdf::126                     0                       # What write queue length does an incoming req see
system.mem_ctrls.wrQLenPdf::127                     0                       # What write queue length does an incoming req see
system.mem_ctrls.totQLat                            0                       # Total ticks spent queuing
system.mem_ctrls.totMemAccLat                       0                       # Total ticks spent from burst creation until serviced by the DRAM
system.mem_ctrls.totBusLat                          0                       # Total ticks spent in databus transfers
system.mem_ctrls.avgQLat                          nan                       # Average queueing delay per DRAM burst
system.mem_ctrls.avgBusLat                        nan                       # Average bus latency per DRAM burst
system.mem_ctrls.avgMemAccLat                     nan                       # Average memory access latency per DRAM burst
system.mem_ctrls.avgRdBW                         0.00                       # Average DRAM read bandwidth in MiByte/s
system.mem_ctrls.avgWrBW                         0.00                       # Average achieved write bandwidth in MiByte/s
system.mem_ctrls.avgRdBWSys                      0.00                       # Average system read bandwidth in MiByte/s
system.mem_ctrls.avgWrBWSys                      0.00                       # Average system write bandwidth in MiByte/s
system.mem_ctrls.peakBW                      19207.00                       # Theoretical peak bandwidth in MiByte/s
system.mem_ctrls.busUtil                         0.00                       # Data bus utilization in percentage
system.mem_ctrls.busUtilRead                     0.00                       # Data bus utilization in percentage for reads
system.mem_ctrls.busUtilWrite                    0.00                       # Data bus utilization in percentage for writes
system.mem_ctrls.avgRdQLen                       0.00                       # Average read queue length when enqueuing
system.mem_ctrls.avgWrQLen                       0.00                       # Average write queue length when enqueuing
system.mem_ctrls.readRowHits                        0                       # Number of row buffer hits during reads
system.mem_ctrls.writeRowHits                       0                       # Number of row buffer hits during writes
system.mem_ctrls.readRowHitRate                   nan                       # Row buffer hit rate for reads
system.mem_ctrls.writeRowHitRate                  nan                       # Row buffer hit rate for writes
system.mem_ctrls.avgGap                           nan                       # Average gap between requests
system.mem_ctrls.pageHitRate                      nan                       # Row buffer hit rate, read and write combined
system.mem_ctrls_0.actEnergy                        0                       # Energy for activate commands per rank (pJ)
system.mem_ctrls_0.preEnergy                        0                       # Energy for precharge commands per rank (pJ)
system.mem_ctrls_0.readEnergy                       0                       # Energy for read commands per rank (pJ)
system.mem_ctrls_0.writeEnergy                      0                       # Energy for write commands per rank (pJ)
system.mem_ctrls_0.refreshEnergy                    0                       # Energy for refresh commands per rank (pJ)
system.mem_ctrls_0.actBackEnergy                    0                       # Energy for active background per rank (pJ)
system.mem_ctrls_0.preBackEnergy         2749767667121964.500000                       # Energy for precharge background per rank (pJ)
system.mem_ctrls_0.actPowerDownEnergy               0                       # Energy for active power-down per rank (pJ)
system.mem_ctrls_0.prePowerDownEnergy               0                       # Energy for precharge power-down per rank (pJ)
system.mem_ctrls_0.selfRefreshEnergy                0                       # Energy for self refresh per rank (pJ)
system.mem_ctrls_0.totalEnergy           2749767667121964.500000                       # Total energy per rank (pJ)
system.mem_ctrls_0.averagePower            163.200000                       # Core power per rank (mW)
system.mem_ctrls_0.totalIdleTime                    0                       # Total Idle time Per DRAM Rank
system.mem_ctrls_0.memoryStateTime::IDLE 23596189642538000                       # Time in different power states
system.mem_ctrls_0.memoryStateTime::REF             0                       # Time in different power states
system.mem_ctrls_0.memoryStateTime::SREF            0                       # Time in different power states
system.mem_ctrls_0.memoryStateTime::PRE_PDN            0                       # Time in different power states
system.mem_ctrls_0.memoryStateTime::ACT             0                       # Time in different power states
system.mem_ctrls_0.memoryStateTime::ACT_PDN            0                       # Time in different power states
system.mem_ctrls_1.actEnergy                        0                       # Energy for activate commands per rank (pJ)
system.mem_ctrls_1.preEnergy                        0                       # Energy for precharge commands per rank (pJ)
system.mem_ctrls_1.readEnergy                       0                       # Energy for read commands per rank (pJ)
system.mem_ctrls_1.writeEnergy                      0                       # Energy for write commands per rank (pJ)
system.mem_ctrls_1.refreshEnergy                    0                       # Energy for refresh commands per rank (pJ)
system.mem_ctrls_1.actBackEnergy                    0                       # Energy for active background per rank (pJ)
system.mem_ctrls_1.preBackEnergy         2749767667121964.500000                       # Energy for precharge background per rank (pJ)
system.mem_ctrls_1.actPowerDownEnergy               0                       # Energy for active power-down per rank (pJ)
system.mem_ctrls_1.prePowerDownEnergy               0                       # Energy for precharge power-down per rank (pJ)
system.mem_ctrls_1.selfRefreshEnergy                0                       # Energy for self refresh per rank (pJ)
[...]
system.tol2bus2.trans_dist::WriteResp            4745                       # Transaction distribution
system.tol2bus2.trans_dist::WritebackDirty      1181746                       # Transaction distribution
system.tol2bus2.trans_dist::WritebackClean      1311129                       # Transaction distribution
system.tol2bus2.trans_dist::CleanEvict        3995066                       # Transaction distribution
system.tol2bus2.trans_dist::UpgradeReq          14607                       # Transaction distribution
system.tol2bus2.trans_dist::SCUpgradeReq        10829                       # Transaction distribution
system.tol2bus2.trans_dist::UpgradeResp         25436                       # Transaction distribution
system.tol2bus2.trans_dist::ReadExReq          556890                       # Transaction distribution
system.tol2bus2.trans_dist::ReadExResp         556890                       # Transaction distribution
system.tol2bus2.trans_dist::ReadCleanReq      1313177                       # Transaction distribution
system.tol2bus2.trans_dist::ReadSharedReq      4436094                       # Transaction distribution
system.tol2bus2.trans_dist::CleanSharedReq        53248                       # Transaction distribution
system.tol2bus2.trans_dist::CleanSharedResp        53248                       # Transaction distribution
system.tol2bus2.trans_dist::InvalidateReq       201299                       # Transaction distribution
system.tol2bus2.trans_dist::InvalidateResp       201299                       # Transaction distribution
system.tol2bus2.pkt_count_system.cpu08.icache.mem_side::system.l22.cpu_side      2822293                       # Packet count per connected master and slave (bytes)
system.tol2bus2.pkt_count_system.cpu08.dcache.mem_side::system.l22.cpu_side     14456569                       # Packet count per connected master and slave (bytes)
system.tol2bus2.pkt_count_system.cpu08.itb.walker.dma::system.l22.cpu_side       243124                       # Packet count per connected master and slave (bytes)
system.tol2bus2.pkt_count_system.cpu08.dtb.walker.dma::system.l22.cpu_side     14598880                       # Packet count per connected master and slave (bytes)
system.tol2bus2.pkt_count_system.cpu09.icache.mem_side::system.l22.cpu_side       555475                       # Packet count per connected master and slave (bytes)
system.tol2bus2.pkt_count_system.cpu09.dcache.mem_side::system.l22.cpu_side       526969                       # Packet count per connected master and slave (bytes)
system.tol2bus2.pkt_count_system.cpu09.itb.walker.dma::system.l22.cpu_side        72626                       # Packet count per connected master and slave (bytes)
system.tol2bus2.pkt_count_system.cpu09.dtb.walker.dma::system.l22.cpu_side        51244                       # Packet count per connected master and slave (bytes)
system.tol2bus2.pkt_count_system.cpu10.icache.mem_side::system.l22.cpu_side       113797                       # Packet count per connected master and slave (bytes)
system.tol2bus2.pkt_count_system.cpu10.dcache.mem_side::system.l22.cpu_side       100120                       # Packet count per connected master and slave (bytes)
system.tol2bus2.pkt_count_system.cpu10.itb.walker.dma::system.l22.cpu_side        16846                       # Packet count per connected master and slave (bytes)
system.tol2bus2.pkt_count_system.cpu10.dtb.walker.dma::system.l22.cpu_side        12422                       # Packet count per connected master and slave (bytes)
system.tol2bus2.pkt_count_system.cpu11.icache.mem_side::system.l22.cpu_side       445918                       # Packet count per connected master and slave (bytes)
system.tol2bus2.pkt_count_system.cpu11.dcache.mem_side::system.l22.cpu_side       656922                       # Packet count per connected master and slave (bytes)
system.tol2bus2.pkt_count_system.cpu11.itb.walker.dma::system.l22.cpu_side        78096                       # Packet count per connected master and slave (bytes)
system.tol2bus2.pkt_count_system.cpu11.dtb.walker.dma::system.l22.cpu_side        85318                       # Packet count per connected master and slave (bytes)
system.tol2bus2.pkt_count::total             34836619                       # Packet count per connected master and slave (bytes)
system.tol2bus2.pkt_size_system.cpu08.icache.mem_side::system.l22.cpu_side    120406912                       # Cumulative packet size per connected master and slave (bytes)
system.tol2bus2.pkt_size_system.cpu08.dcache.mem_side::system.l22.cpu_side    358706252                       # Cumulative packet size per connected master and slave (bytes)
system.tol2bus2.pkt_size_system.cpu08.itb.walker.dma::system.l22.cpu_side       972496                       # Cumulative packet size per connected master and slave (bytes)
system.tol2bus2.pkt_size_system.cpu08.dtb.walker.dma::system.l22.cpu_side     58395520                       # Cumulative packet size per connected master and slave (bytes)
system.tol2bus2.pkt_size_system.cpu09.icache.mem_side::system.l22.cpu_side     23689344                       # Cumulative packet size per connected master and slave (bytes)
system.tol2bus2.pkt_size_system.cpu09.dcache.mem_side::system.l22.cpu_side     13571713                       # Cumulative packet size per connected master and slave (bytes)
system.tol2bus2.pkt_size_system.cpu09.itb.walker.dma::system.l22.cpu_side       290504                       # Cumulative packet size per connected master and slave (bytes)
system.tol2bus2.pkt_size_system.cpu09.dtb.walker.dma::system.l22.cpu_side       204976                       # Cumulative packet size per connected master and slave (bytes)
system.tol2bus2.pkt_size_system.cpu10.icache.mem_side::system.l22.cpu_side      4844416                       # Cumulative packet size per connected master and slave (bytes)
system.tol2bus2.pkt_size_system.cpu10.dcache.mem_side::system.l22.cpu_side      2963345                       # Cumulative packet size per connected master and slave (bytes)
system.tol2bus2.pkt_size_system.cpu10.itb.walker.dma::system.l22.cpu_side        67384                       # Cumulative packet size per connected master and slave (bytes)
system.tol2bus2.pkt_size_system.cpu10.dtb.walker.dma::system.l22.cpu_side        49688                       # Cumulative packet size per connected master and slave (bytes)
system.tol2bus2.pkt_size_system.cpu11.icache.mem_side::system.l22.cpu_side     19014912                       # Cumulative packet size per connected master and slave (bytes)
system.tol2bus2.pkt_size_system.cpu11.dcache.mem_side::system.l22.cpu_side     19958820                       # Cumulative packet size per connected master and slave (bytes)
system.tol2bus2.pkt_size_system.cpu11.itb.walker.dma::system.l22.cpu_side       312384                       # Cumulative packet size per connected master and slave (bytes)
system.tol2bus2.pkt_size_system.cpu11.dtb.walker.dma::system.l22.cpu_side       341272                       # Cumulative packet size per connected master and slave (bytes)
system.tol2bus2.pkt_size::total             623789938                       # Cumulative packet size per connected master and slave (bytes)
system.tol2bus2.snoops                        4769641                       # Total snoops (count)
system.tol2bus2.snoopTraffic                 44568768                       # Total snoop traffic (bytes)
system.tol2bus2.snoop_fanout::samples        18913711                       # Request fanout histogram
system.tol2bus2.snoop_fanout::mean           0.084044                       # Request fanout histogram
system.tol2bus2.snoop_fanout::stdev          0.448048                       # Request fanout histogram
system.tol2bus2.snoop_fanout::underflows            0      0.00%      0.00% # Request fanout histogram
system.tol2bus2.snoop_fanout::0              18115966     95.78%     95.78% # Request fanout histogram
system.tol2bus2.snoop_fanout::1                340094      1.80%     97.58% # Request fanout histogram
system.tol2bus2.snoop_fanout::2                167881      0.89%     98.47% # Request fanout histogram
system.tol2bus2.snoop_fanout::3                245353      1.30%     99.77% # Request fanout histogram
system.tol2bus2.snoop_fanout::4                 44417      0.23%    100.00% # Request fanout histogram
system.tol2bus2.snoop_fanout::5                     0      0.00%    100.00% # Request fanout histogram
system.tol2bus2.snoop_fanout::6                     0      0.00%    100.00% # Request fanout histogram
system.tol2bus2.snoop_fanout::7                     0      0.00%    100.00% # Request fanout histogram
system.tol2bus2.snoop_fanout::8                     0      0.00%    100.00% # Request fanout histogram
system.tol2bus2.snoop_fanout::overflows             0      0.00%    100.00% # Request fanout histogram
system.tol2bus2.snoop_fanout::min_value             0                       # Request fanout histogram
system.tol2bus2.snoop_fanout::max_value             4                       # Request fanout histogram
system.tol2bus2.snoop_fanout::total          18913711                       # Request fanout histogram
system.tol2bus2.directResponses                     0                       # auxiliar stat for checking how reasonable wireless model is
system.tol2bus3.snoop_filter.tot_requests    135968399                       # Total number of requests made to the snoop filter.
system.tol2bus3.snoop_filter.hit_single_requests     62980162                       # Number of requests hitting in the snoop filter with a single holder of the requested data.
system.tol2bus3.snoop_filter.hit_multi_requests     16699885                       # Number of requests hitting in the snoop filter with multiple (>1) holders of the requested data.
system.tol2bus3.snoop_filter.tot_snoops       1333128                       # Total number of snoops made to the snoop filter.
system.tol2bus3.snoop_filter.hit_single_snoops      1032706                       # Number of snoops hitting in the snoop filter with a single holder of the requested data.
system.tol2bus3.snoop_filter.hit_multi_snoops       300422                       # Number of snoops hitting in the snoop filter with multiple (>1) holders of the requested data.
system.tol2bus3.pwrStateResidencyTicks::UNDEFINED 23596189642538000                       # Cumulative time (in ticks) in various power states
system.tol2bus3.trans_dist::ReadReq          20504308                       # Transaction distribution
system.tol2bus3.trans_dist::ReadResp         84848290                       # Transaction distribution
system.tol2bus3.trans_dist::WriteReq            15335                       # Transaction distribution
system.tol2bus3.trans_dist::WriteResp           15335                       # Transaction distribution
system.tol2bus3.trans_dist::WritebackDirty      8475105                       # Transaction distribution
system.tol2bus3.trans_dist::WritebackClean     51696309                       # Transaction distribution
system.tol2bus3.trans_dist::CleanEvict        7562684                       # Transaction distribution
system.tol2bus3.trans_dist::UpgradeReq         117934                       # Transaction distribution
system.tol2bus3.trans_dist::SCUpgradeReq       102505                       # Transaction distribution
system.tol2bus3.trans_dist::UpgradeResp        220439                       # Transaction distribution
system.tol2bus3.trans_dist::ReadExReq         2755556                       # Transaction distribution
system.tol2bus3.trans_dist::ReadExResp        2755556                       # Transaction distribution
system.tol2bus3.trans_dist::ReadCleanReq     51698357                       # Transaction distribution
system.tol2bus3.trans_dist::ReadSharedReq     12645625                       # Transaction distribution
system.tol2bus3.trans_dist::InvalidateReq       847981                       # Transaction distribution
system.tol2bus3.trans_dist::InvalidateResp       847981                       # Transaction distribution
system.tol2bus3.pkt_count_system.cpu12.icache.mem_side::system.l23.cpu_side       335947                       # Packet count per connected master and slave (bytes)
system.tol2bus3.pkt_count_system.cpu12.dcache.mem_side::system.l23.cpu_side       395493                       # Packet count per connected master and slave (bytes)
system.tol2bus3.pkt_count_system.cpu12.itb.walker.dma::system.l23.cpu_side        59972                       # Packet count per connected master and slave (bytes)
system.tol2bus3.pkt_count_system.cpu12.dtb.walker.dma::system.l23.cpu_side        44856                       # Packet count per connected master and slave (bytes)
system.tol2bus3.pkt_count_system.cpu13.icache.mem_side::system.l23.cpu_side     21194983                       # Packet count per connected master and slave (bytes)
system.tol2bus3.pkt_count_system.cpu13.dcache.mem_side::system.l23.cpu_side      7869175                       # Packet count per connected master and slave (bytes)
system.tol2bus3.pkt_count_system.cpu13.itb.walker.dma::system.l23.cpu_side      4488046                       # Packet count per connected master and slave (bytes)
system.tol2bus3.pkt_count_system.cpu13.dtb.walker.dma::system.l23.cpu_side      2523574                       # Packet count per connected master and slave (bytes)
system.tol2bus3.pkt_count_system.cpu14.icache.mem_side::system.l23.cpu_side     29580475                       # Packet count per connected master and slave (bytes)
system.tol2bus3.pkt_count_system.cpu14.dcache.mem_side::system.l23.cpu_side      9080355                       # Packet count per connected master and slave (bytes)
system.tol2bus3.pkt_count_system.cpu14.itb.walker.dma::system.l23.cpu_side      5962322                       # Packet count per connected master and slave (bytes)
system.tol2bus3.pkt_count_system.cpu14.dtb.walker.dma::system.l23.cpu_side      1058888                       # Packet count per connected master and slave (bytes)
system.tol2bus3.pkt_count_system.cpu15.icache.mem_side::system.l23.cpu_side    103981618                       # Packet count per connected master and slave (bytes)
system.tol2bus3.pkt_count_system.cpu15.dcache.mem_side::system.l23.cpu_side     31709812                       # Packet count per connected master and slave (bytes)
system.tol2bus3.pkt_count_system.cpu15.itb.walker.dma::system.l23.cpu_side     21545646                       # Packet count per connected master and slave (bytes)
system.tol2bus3.pkt_count_system.cpu15.dtb.walker.dma::system.l23.cpu_side      5278138                       # Packet count per connected master and slave (bytes)
system.tol2bus3.pkt_count::total            245109300                       # Packet count per connected master and slave (bytes)
system.tol2bus3.pkt_size_system.cpu12.icache.mem_side::system.l23.cpu_side     14322816                       # Cumulative packet size per connected master and slave (bytes)
system.tol2bus3.pkt_size_system.cpu12.dcache.mem_side::system.l23.cpu_side     12127296                       # Cumulative packet size per connected master and slave (bytes)
system.tol2bus3.pkt_size_system.cpu12.itb.walker.dma::system.l23.cpu_side       239888                       # Cumulative packet size per connected master and slave (bytes)
system.tol2bus3.pkt_size_system.cpu12.dtb.walker.dma::system.l23.cpu_side       179424                       # Cumulative packet size per connected master and slave (bytes)
system.tol2bus3.pkt_size_system.cpu13.icache.mem_side::system.l23.cpu_side    904308352                       # Cumulative packet size per connected master and slave (bytes)
system.tol2bus3.pkt_size_system.cpu13.dcache.mem_side::system.l23.cpu_side    231964259                       # Cumulative packet size per connected master and slave (bytes)
system.tol2bus3.pkt_size_system.cpu13.itb.walker.dma::system.l23.cpu_side     17952184                       # Cumulative packet size per connected master and slave (bytes)
system.tol2bus3.pkt_size_system.cpu13.dtb.walker.dma::system.l23.cpu_side     10094296                       # Cumulative packet size per connected master and slave (bytes)
system.tol2bus3.pkt_size_system.cpu14.icache.mem_side::system.l23.cpu_side   1262089344                       # Cumulative packet size per connected master and slave (bytes)
system.tol2bus3.pkt_size_system.cpu14.dcache.mem_side::system.l23.cpu_side    281925560                       # Cumulative packet size per connected master and slave (bytes)
system.tol2bus3.pkt_size_system.cpu14.itb.walker.dma::system.l23.cpu_side     23849288                       # Cumulative packet size per connected master and slave (bytes)
system.tol2bus3.pkt_size_system.cpu14.dtb.walker.dma::system.l23.cpu_side      4235552                       # Cumulative packet size per connected master and slave (bytes)
system.tol2bus3.pkt_size_system.cpu15.icache.mem_side::system.l23.cpu_side   4436538112                       # Cumulative packet size per connected master and slave (bytes)
system.tol2bus3.pkt_size_system.cpu15.dcache.mem_side::system.l23.cpu_side   1002219908                       # Cumulative packet size per connected master and slave (bytes)
system.tol2bus3.pkt_size_system.cpu15.itb.walker.dma::system.l23.cpu_side     86182584                       # Cumulative packet size per connected master and slave (bytes)
system.tol2bus3.pkt_size_system.cpu15.dtb.walker.dma::system.l23.cpu_side     21112552                       # Cumulative packet size per connected master and slave (bytes)
system.tol2bus3.pkt_size::total            8309341415                       # Cumulative packet size per connected master and slave (bytes)
system.tol2bus3.snoops                        4976192                       # Total snoops (count)
system.tol2bus3.snoopTraffic                 62096704                       # Total snoop traffic (bytes)
system.tol2bus3.snoop_fanout::samples        93574405                       # Request fanout histogram
system.tol2bus3.snoop_fanout::mean           0.225395                       # Request fanout histogram
system.tol2bus3.snoop_fanout::stdev          0.631780                       # Request fanout histogram
system.tol2bus3.snoop_fanout::underflows            0      0.00%      0.00% # Request fanout histogram
system.tol2bus3.snoop_fanout::0              80372990     85.89%     85.89% # Request fanout histogram
system.tol2bus3.snoop_fanout::1               7882388      8.42%     94.32% # Request fanout histogram
system.tol2bus3.snoop_fanout::2               2794081      2.99%     97.30% # Request fanout histogram
system.tol2bus3.snoop_fanout::3               2479174      2.65%     99.95% # Request fanout histogram
system.tol2bus3.snoop_fanout::4                 45772      0.05%    100.00% # Request fanout histogram
system.tol2bus3.snoop_fanout::5                     0      0.00%    100.00% # Request fanout histogram
system.tol2bus3.snoop_fanout::6                     0      0.00%    100.00% # Request fanout histogram
system.tol2bus3.snoop_fanout::7                     0      0.00%    100.00% # Request fanout histogram
system.tol2bus3.snoop_fanout::8                     0      0.00%    100.00% # Request fanout histogram
system.tol2bus3.snoop_fanout::overflows             0      0.00%    100.00% # Request fanout histogram
system.tol2bus3.snoop_fanout::min_value             0                       # Request fanout histogram
system.tol2bus3.snoop_fanout::max_value             4                       # Request fanout histogram
system.tol2bus3.snoop_fanout::total          93574405                       # Request fanout histogram
system.tol2bus3.directResponses                     0                       # auxiliar stat for checking how reasonable wireless model is

---------- End Simulation Statistics   ----------
