
---------- Begin Simulation Statistics ----------
sim_seconds                              84941.079908                       # Number of seconds simulated
sim_ticks                                84941079908226496                       # Number of ticks simulated
final_tick                               91688202963007504                       # Number of ticks from beginning of simulation (restored from checkpoints and never reset)
sim_freq                                 1000000000000                       # Frequency of simulated ticks
host_inst_rate                                1978375                       # Simulator instruction rate (inst/s)
host_op_rate                                  2272744                       # Simulator op (including micro ops) rate (op/s)
host_tick_rate                           7992395068020                       # Simulator tick rate (ticks/s)
host_mem_usage                                5047616                       # Number of bytes of host memory used
host_seconds                                 10627.74                       # Real time elapsed on the host
sim_insts                                 21025654672                       # Number of instructions simulated
sim_ops                                   24154123101                       # Number of ops (including micro ops) simulated
system.voltage_domain.voltage                       1                       # Voltage in Volts
system.clk_domain.clock                           625                       # Clock period in ticks
system.bootmem.pwrStateResidencyTicks::UNDEFINED 91688202963007504                       # Cumulative time (in ticks) in various power states
system.mem_ctrls.pwrStateResidencyTicks::UNDEFINED 91688202963007504                       # Cumulative time (in ticks) in various power states
system.mem_ctrls.bytes_read::cpu00.dtb.walker       106624                       # Number of bytes read from this memory
system.mem_ctrls.bytes_read::cpu00.itb.walker        64320                       # Number of bytes read from this memory
system.mem_ctrls.bytes_read::cpu00.inst       5073856                       # Number of bytes read from this memory
system.mem_ctrls.bytes_read::cpu00.data      75829632                       # Number of bytes read from this memory
system.mem_ctrls.bytes_read::cpu01.dtb.walker       104000                       # Number of bytes read from this memory
system.mem_ctrls.bytes_read::cpu01.itb.walker        40192                       # Number of bytes read from this memory
system.mem_ctrls.bytes_read::cpu01.inst       3246208                       # Number of bytes read from this memory
system.mem_ctrls.bytes_read::cpu01.data       9387328                       # Number of bytes read from this memory
system.mem_ctrls.bytes_read::cpu02.dtb.walker      3080576                       # Number of bytes read from this memory
system.mem_ctrls.bytes_read::cpu02.itb.walker       113088                       # Number of bytes read from this memory
system.mem_ctrls.bytes_read::cpu02.inst       7237376                       # Number of bytes read from this memory
system.mem_ctrls.bytes_read::cpu02.data     181849664                       # Number of bytes read from this memory
system.mem_ctrls.bytes_read::cpu03.dtb.walker        95808                       # Number of bytes read from this memory
system.mem_ctrls.bytes_read::cpu03.itb.walker        38848                       # Number of bytes read from this memory
system.mem_ctrls.bytes_read::cpu03.inst       2819712                       # Number of bytes read from this memory
system.mem_ctrls.bytes_read::cpu03.data       9228160                       # Number of bytes read from this memory
system.mem_ctrls.bytes_read::cpu04.dtb.walker       208128                       # Number of bytes read from this memory
system.mem_ctrls.bytes_read::cpu04.itb.walker        63936                       # Number of bytes read from this memory
system.mem_ctrls.bytes_read::cpu04.inst       5977792                       # Number of bytes read from this memory
system.mem_ctrls.bytes_read::cpu04.data      12696768                       # Number of bytes read from this memory
system.mem_ctrls.bytes_read::cpu05.dtb.walker        82816                       # Number of bytes read from this memory
system.mem_ctrls.bytes_read::cpu05.itb.walker        48512                       # Number of bytes read from this memory
system.mem_ctrls.bytes_read::cpu05.inst       3389120                       # Number of bytes read from this memory
system.mem_ctrls.bytes_read::cpu05.data      11161152                       # Number of bytes read from this memory
system.mem_ctrls.bytes_read::cpu06.dtb.walker      5638272                       # Number of bytes read from this memory
system.mem_ctrls.bytes_read::cpu06.itb.walker        94080                       # Number of bytes read from this memory
system.mem_ctrls.bytes_read::cpu06.inst       5230848                       # Number of bytes read from this memory
system.mem_ctrls.bytes_read::cpu06.data     210771072                       # Number of bytes read from this memory
system.mem_ctrls.bytes_read::cpu07.dtb.walker        84224                       # Number of bytes read from this memory
system.mem_ctrls.bytes_read::cpu07.itb.walker        35136                       # Number of bytes read from this memory
system.mem_ctrls.bytes_read::cpu07.inst       2403776                       # Number of bytes read from this memory
system.mem_ctrls.bytes_read::cpu07.data       7758272                       # Number of bytes read from this memory
system.mem_ctrls.bytes_read::cpu08.dtb.walker        58624                       # Number of bytes read from this memory
system.mem_ctrls.bytes_read::cpu08.itb.walker        15680                       # Number of bytes read from this memory
system.mem_ctrls.bytes_read::cpu08.inst       2094656                       # Number of bytes read from this memory
system.mem_ctrls.bytes_read::cpu08.data       8124032                       # Number of bytes read from this memory
system.mem_ctrls.bytes_read::cpu09.dtb.walker        81344                       # Number of bytes read from this memory
system.mem_ctrls.bytes_read::cpu09.itb.walker        39744                       # Number of bytes read from this memory
system.mem_ctrls.bytes_read::cpu09.inst       3574848                       # Number of bytes read from this memory
system.mem_ctrls.bytes_read::cpu09.data      11650112                       # Number of bytes read from this memory
system.mem_ctrls.bytes_read::cpu10.dtb.walker        70400                       # Number of bytes read from this memory
system.mem_ctrls.bytes_read::cpu10.itb.walker        20544                       # Number of bytes read from this memory
system.mem_ctrls.bytes_read::cpu10.inst       2082624                       # Number of bytes read from this memory
system.mem_ctrls.bytes_read::cpu10.data       7709888                       # Number of bytes read from this memory
system.mem_ctrls.bytes_read::cpu11.dtb.walker      2295296                       # Number of bytes read from this memory
system.mem_ctrls.bytes_read::cpu11.itb.walker       415808                       # Number of bytes read from this memory
system.mem_ctrls.bytes_read::cpu11.inst      29035584                       # Number of bytes read from this memory
system.mem_ctrls.bytes_read::cpu11.data      26405376                       # Number of bytes read from this memory
system.mem_ctrls.bytes_read::cpu12.dtb.walker       113216                       # Number of bytes read from this memory
system.mem_ctrls.bytes_read::cpu12.itb.walker        49088                       # Number of bytes read from this memory
system.mem_ctrls.bytes_read::cpu12.inst       4022912                       # Number of bytes read from this memory
system.mem_ctrls.bytes_read::cpu12.data      12130432                       # Number of bytes read from this memory
system.mem_ctrls.bytes_read::cpu13.dtb.walker       385344                       # Number of bytes read from this memory
system.mem_ctrls.bytes_read::cpu13.itb.walker        89216                       # Number of bytes read from this memory
system.mem_ctrls.bytes_read::cpu13.inst       8991168                       # Number of bytes read from this memory
system.mem_ctrls.bytes_read::cpu13.data      11793024                       # Number of bytes read from this memory
system.mem_ctrls.bytes_read::cpu14.dtb.walker     19196544                       # Number of bytes read from this memory
system.mem_ctrls.bytes_read::cpu14.itb.walker     13115200                       # Number of bytes read from this memory
system.mem_ctrls.bytes_read::cpu14.inst     264728064                       # Number of bytes read from this memory
system.mem_ctrls.bytes_read::cpu14.data     217518080                       # Number of bytes read from this memory
system.mem_ctrls.bytes_read::cpu15.dtb.walker       779200                       # Number of bytes read from this memory
system.mem_ctrls.bytes_read::cpu15.itb.walker       287232                       # Number of bytes read from this memory
system.mem_ctrls.bytes_read::cpu15.inst      19089216                       # Number of bytes read from this memory
system.mem_ctrls.bytes_read::cpu15.data      20414784                       # Number of bytes read from this memory
system.mem_ctrls.bytes_read::total         1250336576                       # Number of bytes read from this memory
system.mem_ctrls.bytes_inst_read::cpu00.inst      5073856                       # Number of instructions bytes read from this memory
system.mem_ctrls.bytes_inst_read::cpu01.inst      3246208                       # Number of instructions bytes read from this memory
system.mem_ctrls.bytes_inst_read::cpu02.inst      7237376                       # Number of instructions bytes read from this memory
system.mem_ctrls.bytes_inst_read::cpu03.inst      2819712                       # Number of instructions bytes read from this memory
system.mem_ctrls.bytes_inst_read::cpu04.inst      5977792                       # Number of instructions bytes read from this memory
system.mem_ctrls.bytes_inst_read::cpu05.inst      3389120                       # Number of instructions bytes read from this memory
system.mem_ctrls.bytes_inst_read::cpu06.inst      5230848                       # Number of instructions bytes read from this memory
system.mem_ctrls.bytes_inst_read::cpu07.inst      2403776                       # Number of instructions bytes read from this memory
system.mem_ctrls.bytes_inst_read::cpu08.inst      2094656                       # Number of instructions bytes read from this memory
system.mem_ctrls.bytes_inst_read::cpu09.inst      3574848                       # Number of instructions bytes read from this memory
system.mem_ctrls.bytes_inst_read::cpu10.inst      2082624                       # Number of instructions bytes read from this memory
system.mem_ctrls.bytes_inst_read::cpu11.inst     29035584                       # Number of instructions bytes read from this memory
system.mem_ctrls.bytes_inst_read::cpu12.inst      4022912                       # Number of instructions bytes read from this memory
system.mem_ctrls.bytes_inst_read::cpu13.inst      8991168                       # Number of instructions bytes read from this memory
system.mem_ctrls.bytes_inst_read::cpu14.inst    264728064                       # Number of instructions bytes read from this memory
system.mem_ctrls.bytes_inst_read::cpu15.inst     19089216                       # Number of instructions bytes read from this memory
system.mem_ctrls.bytes_inst_read::total     368997760                       # Number of instructions bytes read from this memory
system.mem_ctrls.bytes_written::writebacks    385063168                       # Number of bytes written to this memory
system.mem_ctrls.bytes_written::total       385063168                       # Number of bytes written to this memory
system.mem_ctrls.num_reads::cpu00.dtb.walker         1666                       # Number of read requests responded to by this memory
system.mem_ctrls.num_reads::cpu00.itb.walker         1005                       # Number of read requests responded to by this memory
system.mem_ctrls.num_reads::cpu00.inst          79279                       # Number of read requests responded to by this memory
system.mem_ctrls.num_reads::cpu00.data        1184838                       # Number of read requests responded to by this memory
system.mem_ctrls.num_reads::cpu01.dtb.walker         1625                       # Number of read requests responded to by this memory
system.mem_ctrls.num_reads::cpu01.itb.walker          628                       # Number of read requests responded to by this memory
system.mem_ctrls.num_reads::cpu01.inst          50722                       # Number of read requests responded to by this memory
system.mem_ctrls.num_reads::cpu01.data         146677                       # Number of read requests responded to by this memory
system.mem_ctrls.num_reads::cpu02.dtb.walker        48134                       # Number of read requests responded to by this memory
system.mem_ctrls.num_reads::cpu02.itb.walker         1767                       # Number of read requests responded to by this memory
system.mem_ctrls.num_reads::cpu02.inst         113084                       # Number of read requests responded to by this memory
system.mem_ctrls.num_reads::cpu02.data        2841401                       # Number of read requests responded to by this memory
system.mem_ctrls.num_reads::cpu03.dtb.walker         1497                       # Number of read requests responded to by this memory
system.mem_ctrls.num_reads::cpu03.itb.walker          607                       # Number of read requests responded to by this memory
system.mem_ctrls.num_reads::cpu03.inst          44058                       # Number of read requests responded to by this memory
system.mem_ctrls.num_reads::cpu03.data         144190                       # Number of read requests responded to by this memory
system.mem_ctrls.num_reads::cpu04.dtb.walker         3252                       # Number of read requests responded to by this memory
system.mem_ctrls.num_reads::cpu04.itb.walker          999                       # Number of read requests responded to by this memory
system.mem_ctrls.num_reads::cpu04.inst          93403                       # Number of read requests responded to by this memory
system.mem_ctrls.num_reads::cpu04.data         198387                       # Number of read requests responded to by this memory
system.mem_ctrls.num_reads::cpu05.dtb.walker         1294                       # Number of read requests responded to by this memory
system.mem_ctrls.num_reads::cpu05.itb.walker          758                       # Number of read requests responded to by this memory
system.mem_ctrls.num_reads::cpu05.inst          52955                       # Number of read requests responded to by this memory
system.mem_ctrls.num_reads::cpu05.data         174393                       # Number of read requests responded to by this memory
system.mem_ctrls.num_reads::cpu06.dtb.walker        88098                       # Number of read requests responded to by this memory
system.mem_ctrls.num_reads::cpu06.itb.walker         1470                       # Number of read requests responded to by this memory
system.mem_ctrls.num_reads::cpu06.inst          81732                       # Number of read requests responded to by this memory
system.mem_ctrls.num_reads::cpu06.data        3293298                       # Number of read requests responded to by this memory
system.mem_ctrls.num_reads::cpu07.dtb.walker         1316                       # Number of read requests responded to by this memory
system.mem_ctrls.num_reads::cpu07.itb.walker          549                       # Number of read requests responded to by this memory
system.mem_ctrls.num_reads::cpu07.inst          37559                       # Number of read requests responded to by this memory
system.mem_ctrls.num_reads::cpu07.data         121223                       # Number of read requests responded to by this memory
system.mem_ctrls.num_reads::cpu08.dtb.walker          916                       # Number of read requests responded to by this memory
system.mem_ctrls.num_reads::cpu08.itb.walker          245                       # Number of read requests responded to by this memory
system.mem_ctrls.num_reads::cpu08.inst          32729                       # Number of read requests responded to by this memory
system.mem_ctrls.num_reads::cpu08.data         126938                       # Number of read requests responded to by this memory
system.mem_ctrls.num_reads::cpu09.dtb.walker         1271                       # Number of read requests responded to by this memory
system.mem_ctrls.num_reads::cpu09.itb.walker          621                       # Number of read requests responded to by this memory
system.mem_ctrls.num_reads::cpu09.inst          55857                       # Number of read requests responded to by this memory
system.mem_ctrls.num_reads::cpu09.data         182033                       # Number of read requests responded to by this memory
system.mem_ctrls.num_reads::cpu10.dtb.walker         1100                       # Number of read requests responded to by this memory
system.mem_ctrls.num_reads::cpu10.itb.walker          321                       # Number of read requests responded to by this memory
system.mem_ctrls.num_reads::cpu10.inst          32541                       # Number of read requests responded to by this memory
system.mem_ctrls.num_reads::cpu10.data         120467                       # Number of read requests responded to by this memory
system.mem_ctrls.num_reads::cpu11.dtb.walker        35864                       # Number of read requests responded to by this memory
system.mem_ctrls.num_reads::cpu11.itb.walker         6497                       # Number of read requests responded to by this memory
system.mem_ctrls.num_reads::cpu11.inst         453681                       # Number of read requests responded to by this memory
system.mem_ctrls.num_reads::cpu11.data         412584                       # Number of read requests responded to by this memory
system.mem_ctrls.num_reads::cpu12.dtb.walker         1769                       # Number of read requests responded to by this memory
system.mem_ctrls.num_reads::cpu12.itb.walker          767                       # Number of read requests responded to by this memory
system.mem_ctrls.num_reads::cpu12.inst          62858                       # Number of read requests responded to by this memory
system.mem_ctrls.num_reads::cpu12.data         189538                       # Number of read requests responded to by this memory
system.mem_ctrls.num_reads::cpu13.dtb.walker         6021                       # Number of read requests responded to by this memory
system.mem_ctrls.num_reads::cpu13.itb.walker         1394                       # Number of read requests responded to by this memory
system.mem_ctrls.num_reads::cpu13.inst         140487                       # Number of read requests responded to by this memory
system.mem_ctrls.num_reads::cpu13.data         184266                       # Number of read requests responded to by this memory
system.mem_ctrls.num_reads::cpu14.dtb.walker       299946                       # Number of read requests responded to by this memory
system.mem_ctrls.num_reads::cpu14.itb.walker       204925                       # Number of read requests responded to by this memory
system.mem_ctrls.num_reads::cpu14.inst        4136376                       # Number of read requests responded to by this memory
system.mem_ctrls.num_reads::cpu14.data        3398720                       # Number of read requests responded to by this memory
system.mem_ctrls.num_reads::cpu15.dtb.walker        12175                       # Number of read requests responded to by this memory
system.mem_ctrls.num_reads::cpu15.itb.walker         4488                       # Number of read requests responded to by this memory
system.mem_ctrls.num_reads::cpu15.inst         298269                       # Number of read requests responded to by this memory
system.mem_ctrls.num_reads::cpu15.data         318981                       # Number of read requests responded to by this memory
system.mem_ctrls.num_reads::total            19536509                       # Number of read requests responded to by this memory
system.mem_ctrls.num_writes::writebacks       6016612                       # Number of write requests responded to by this memory
system.mem_ctrls.num_writes::total            6016612                       # Number of write requests responded to by this memory
system.mem_ctrls.bw_read::cpu00.dtb.walker            1                       # Total read bandwidth from this memory (bytes/s)
system.mem_ctrls.bw_read::cpu00.itb.walker            1                       # Total read bandwidth from this memory (bytes/s)
system.mem_ctrls.bw_read::cpu00.inst               60                       # Total read bandwidth from this memory (bytes/s)
system.mem_ctrls.bw_read::cpu00.data              893                       # Total read bandwidth from this memory (bytes/s)
system.mem_ctrls.bw_read::cpu01.dtb.walker            1                       # Total read bandwidth from this memory (bytes/s)
system.mem_ctrls.bw_read::cpu01.itb.walker            0                       # Total read bandwidth from this memory (bytes/s)
system.mem_ctrls.bw_read::cpu01.inst               38                       # Total read bandwidth from this memory (bytes/s)
system.mem_ctrls.bw_read::cpu01.data              111                       # Total read bandwidth from this memory (bytes/s)
system.mem_ctrls.bw_read::cpu02.dtb.walker           36                       # Total read bandwidth from this memory (bytes/s)
system.mem_ctrls.bw_read::cpu02.itb.walker            1                       # Total read bandwidth from this memory (bytes/s)
system.mem_ctrls.bw_read::cpu02.inst               85                       # Total read bandwidth from this memory (bytes/s)
system.mem_ctrls.bw_read::cpu02.data             2141                       # Total read bandwidth from this memory (bytes/s)
system.mem_ctrls.bw_read::cpu03.dtb.walker            1                       # Total read bandwidth from this memory (bytes/s)
system.mem_ctrls.bw_read::cpu03.itb.walker            0                       # Total read bandwidth from this memory (bytes/s)
system.mem_ctrls.bw_read::cpu03.inst               33                       # Total read bandwidth from this memory (bytes/s)
system.mem_ctrls.bw_read::cpu03.data              109                       # Total read bandwidth from this memory (bytes/s)
system.mem_ctrls.bw_read::cpu04.dtb.walker            2                       # Total read bandwidth from this memory (bytes/s)
system.mem_ctrls.bw_read::cpu04.itb.walker            1                       # Total read bandwidth from this memory (bytes/s)
system.mem_ctrls.bw_read::cpu04.inst               70                       # Total read bandwidth from this memory (bytes/s)
system.mem_ctrls.bw_read::cpu04.data              149                       # Total read bandwidth from this memory (bytes/s)
system.mem_ctrls.bw_read::cpu05.dtb.walker            1                       # Total read bandwidth from this memory (bytes/s)
system.mem_ctrls.bw_read::cpu05.itb.walker            1                       # Total read bandwidth from this memory (bytes/s)
system.mem_ctrls.bw_read::cpu05.inst               40                       # Total read bandwidth from this memory (bytes/s)
system.mem_ctrls.bw_read::cpu05.data              131                       # Total read bandwidth from this memory (bytes/s)
system.mem_ctrls.bw_read::cpu06.dtb.walker           66                       # Total read bandwidth from this memory (bytes/s)
system.mem_ctrls.bw_read::cpu06.itb.walker            1                       # Total read bandwidth from this memory (bytes/s)
system.mem_ctrls.bw_read::cpu06.inst               62                       # Total read bandwidth from this memory (bytes/s)
system.mem_ctrls.bw_read::cpu06.data             2481                       # Total read bandwidth from this memory (bytes/s)
system.mem_ctrls.bw_read::cpu07.dtb.walker            1                       # Total read bandwidth from this memory (bytes/s)
system.mem_ctrls.bw_read::cpu07.itb.walker            0                       # Total read bandwidth from this memory (bytes/s)
system.mem_ctrls.bw_read::cpu07.inst               28                       # Total read bandwidth from this memory (bytes/s)
system.mem_ctrls.bw_read::cpu07.data               91                       # Total read bandwidth from this memory (bytes/s)
system.mem_ctrls.bw_read::cpu08.dtb.walker            1                       # Total read bandwidth from this memory (bytes/s)
system.mem_ctrls.bw_read::cpu08.itb.walker            0                       # Total read bandwidth from this memory (bytes/s)
system.mem_ctrls.bw_read::cpu08.inst               25                       # Total read bandwidth from this memory (bytes/s)
system.mem_ctrls.bw_read::cpu08.data               96                       # Total read bandwidth from this memory (bytes/s)
system.mem_ctrls.bw_read::cpu09.dtb.walker            1                       # Total read bandwidth from this memory (bytes/s)
system.mem_ctrls.bw_read::cpu09.itb.walker            0                       # Total read bandwidth from this memory (bytes/s)
system.mem_ctrls.bw_read::cpu09.inst               42                       # Total read bandwidth from this memory (bytes/s)
system.mem_ctrls.bw_read::cpu09.data              137                       # Total read bandwidth from this memory (bytes/s)
system.mem_ctrls.bw_read::cpu10.dtb.walker            1                       # Total read bandwidth from this memory (bytes/s)
system.mem_ctrls.bw_read::cpu10.itb.walker            0                       # Total read bandwidth from this memory (bytes/s)
system.mem_ctrls.bw_read::cpu10.inst               25                       # Total read bandwidth from this memory (bytes/s)
system.mem_ctrls.bw_read::cpu10.data               91                       # Total read bandwidth from this memory (bytes/s)
system.mem_ctrls.bw_read::cpu11.dtb.walker           27                       # Total read bandwidth from this memory (bytes/s)
system.mem_ctrls.bw_read::cpu11.itb.walker            5                       # Total read bandwidth from this memory (bytes/s)
system.mem_ctrls.bw_read::cpu11.inst              342                       # Total read bandwidth from this memory (bytes/s)
system.mem_ctrls.bw_read::cpu11.data              311                       # Total read bandwidth from this memory (bytes/s)
system.mem_ctrls.bw_read::cpu12.dtb.walker            1                       # Total read bandwidth from this memory (bytes/s)
system.mem_ctrls.bw_read::cpu12.itb.walker            1                       # Total read bandwidth from this memory (bytes/s)
system.mem_ctrls.bw_read::cpu12.inst               47                       # Total read bandwidth from this memory (bytes/s)
system.mem_ctrls.bw_read::cpu12.data              143                       # Total read bandwidth from this memory (bytes/s)
system.mem_ctrls.bw_read::cpu13.dtb.walker            5                       # Total read bandwidth from this memory (bytes/s)
system.mem_ctrls.bw_read::cpu13.itb.walker            1                       # Total read bandwidth from this memory (bytes/s)
system.mem_ctrls.bw_read::cpu13.inst              106                       # Total read bandwidth from this memory (bytes/s)
system.mem_ctrls.bw_read::cpu13.data              139                       # Total read bandwidth from this memory (bytes/s)
system.mem_ctrls.bw_read::cpu14.dtb.walker          226                       # Total read bandwidth from this memory (bytes/s)
system.mem_ctrls.bw_read::cpu14.itb.walker          154                       # Total read bandwidth from this memory (bytes/s)
system.mem_ctrls.bw_read::cpu14.inst             3117                       # Total read bandwidth from this memory (bytes/s)
system.mem_ctrls.bw_read::cpu14.data             2561                       # Total read bandwidth from this memory (bytes/s)
system.mem_ctrls.bw_read::cpu15.dtb.walker            9                       # Total read bandwidth from this memory (bytes/s)
system.mem_ctrls.bw_read::cpu15.itb.walker            3                       # Total read bandwidth from this memory (bytes/s)
system.mem_ctrls.bw_read::cpu15.inst              225                       # Total read bandwidth from this memory (bytes/s)
system.mem_ctrls.bw_read::cpu15.data              240                       # Total read bandwidth from this memory (bytes/s)
system.mem_ctrls.bw_read::total                 14720                       # Total read bandwidth from this memory (bytes/s)
system.mem_ctrls.bw_inst_read::cpu00.inst           60                       # Instruction read bandwidth from this memory (bytes/s)
system.mem_ctrls.bw_inst_read::cpu01.inst           38                       # Instruction read bandwidth from this memory (bytes/s)
system.mem_ctrls.bw_inst_read::cpu02.inst           85                       # Instruction read bandwidth from this memory (bytes/s)
system.mem_ctrls.bw_inst_read::cpu03.inst           33                       # Instruction read bandwidth from this memory (bytes/s)
system.mem_ctrls.bw_inst_read::cpu04.inst           70                       # Instruction read bandwidth from this memory (bytes/s)
system.mem_ctrls.bw_inst_read::cpu05.inst           40                       # Instruction read bandwidth from this memory (bytes/s)
system.mem_ctrls.bw_inst_read::cpu06.inst           62                       # Instruction read bandwidth from this memory (bytes/s)
system.mem_ctrls.bw_inst_read::cpu07.inst           28                       # Instruction read bandwidth from this memory (bytes/s)
system.mem_ctrls.bw_inst_read::cpu08.inst           25                       # Instruction read bandwidth from this memory (bytes/s)
system.mem_ctrls.bw_inst_read::cpu09.inst           42                       # Instruction read bandwidth from this memory (bytes/s)
system.mem_ctrls.bw_inst_read::cpu10.inst           25                       # Instruction read bandwidth from this memory (bytes/s)
system.mem_ctrls.bw_inst_read::cpu11.inst          342                       # Instruction read bandwidth from this memory (bytes/s)
system.mem_ctrls.bw_inst_read::cpu12.inst           47                       # Instruction read bandwidth from this memory (bytes/s)
system.mem_ctrls.bw_inst_read::cpu13.inst          106                       # Instruction read bandwidth from this memory (bytes/s)
system.mem_ctrls.bw_inst_read::cpu14.inst         3117                       # Instruction read bandwidth from this memory (bytes/s)
system.mem_ctrls.bw_inst_read::cpu15.inst          225                       # Instruction read bandwidth from this memory (bytes/s)
system.mem_ctrls.bw_inst_read::total             4344                       # Instruction read bandwidth from this memory (bytes/s)
system.mem_ctrls.bw_write::writebacks            4533                       # Write bandwidth from this memory (bytes/s)
system.mem_ctrls.bw_write::total                 4533                       # Write bandwidth from this memory (bytes/s)
system.mem_ctrls.bw_total::writebacks            4533                       # Total bandwidth to/from this memory (bytes/s)
system.mem_ctrls.bw_total::cpu00.dtb.walker            1                       # Total bandwidth to/from this memory (bytes/s)
system.mem_ctrls.bw_total::cpu00.itb.walker            1                       # Total bandwidth to/from this memory (bytes/s)
system.mem_ctrls.bw_total::cpu00.inst              60                       # Total bandwidth to/from this memory (bytes/s)
system.mem_ctrls.bw_total::cpu00.data             893                       # Total bandwidth to/from this memory (bytes/s)
system.mem_ctrls.bw_total::cpu01.dtb.walker            1                       # Total bandwidth to/from this memory (bytes/s)
system.mem_ctrls.bw_total::cpu01.itb.walker            0                       # Total bandwidth to/from this memory (bytes/s)
system.mem_ctrls.bw_total::cpu01.inst              38                       # Total bandwidth to/from this memory (bytes/s)
system.mem_ctrls.bw_total::cpu01.data             111                       # Total bandwidth to/from this memory (bytes/s)
system.mem_ctrls.bw_total::cpu02.dtb.walker           36                       # Total bandwidth to/from this memory (bytes/s)
system.mem_ctrls.bw_total::cpu02.itb.walker            1                       # Total bandwidth to/from this memory (bytes/s)
system.mem_ctrls.bw_total::cpu02.inst              85                       # Total bandwidth to/from this memory (bytes/s)
system.mem_ctrls.bw_total::cpu02.data            2141                       # Total bandwidth to/from this memory (bytes/s)
system.mem_ctrls.bw_total::cpu03.dtb.walker            1                       # Total bandwidth to/from this memory (bytes/s)
system.mem_ctrls.bw_total::cpu03.itb.walker            0                       # Total bandwidth to/from this memory (bytes/s)
system.mem_ctrls.bw_total::cpu03.inst              33                       # Total bandwidth to/from this memory (bytes/s)
system.mem_ctrls.bw_total::cpu03.data             109                       # Total bandwidth to/from this memory (bytes/s)
system.mem_ctrls.bw_total::cpu04.dtb.walker            2                       # Total bandwidth to/from this memory (bytes/s)
system.mem_ctrls.bw_total::cpu04.itb.walker            1                       # Total bandwidth to/from this memory (bytes/s)
system.mem_ctrls.bw_total::cpu04.inst              70                       # Total bandwidth to/from this memory (bytes/s)
system.mem_ctrls.bw_total::cpu04.data             149                       # Total bandwidth to/from this memory (bytes/s)
system.mem_ctrls.bw_total::cpu05.dtb.walker            1                       # Total bandwidth to/from this memory (bytes/s)
system.mem_ctrls.bw_total::cpu05.itb.walker            1                       # Total bandwidth to/from this memory (bytes/s)
system.mem_ctrls.bw_total::cpu05.inst              40                       # Total bandwidth to/from this memory (bytes/s)
system.mem_ctrls.bw_total::cpu05.data             131                       # Total bandwidth to/from this memory (bytes/s)
system.mem_ctrls.bw_total::cpu06.dtb.walker           66                       # Total bandwidth to/from this memory (bytes/s)
system.mem_ctrls.bw_total::cpu06.itb.walker            1                       # Total bandwidth to/from this memory (bytes/s)
system.mem_ctrls.bw_total::cpu06.inst              62                       # Total bandwidth to/from this memory (bytes/s)
system.mem_ctrls.bw_total::cpu06.data            2481                       # Total bandwidth to/from this memory (bytes/s)
system.mem_ctrls.bw_total::cpu07.dtb.walker            1                       # Total bandwidth to/from this memory (bytes/s)
system.mem_ctrls.bw_total::cpu07.itb.walker            0                       # Total bandwidth to/from this memory (bytes/s)
system.mem_ctrls.bw_total::cpu07.inst              28                       # Total bandwidth to/from this memory (bytes/s)
system.mem_ctrls.bw_total::cpu07.data              91                       # Total bandwidth to/from this memory (bytes/s)
system.mem_ctrls.bw_total::cpu08.dtb.walker            1                       # Total bandwidth to/from this memory (bytes/s)
system.mem_ctrls.bw_total::cpu08.itb.walker            0                       # Total bandwidth to/from this memory (bytes/s)
system.mem_ctrls.bw_total::cpu08.inst              25                       # Total bandwidth to/from this memory (bytes/s)
system.mem_ctrls.bw_total::cpu08.data              96                       # Total bandwidth to/from this memory (bytes/s)
system.mem_ctrls.bw_total::cpu09.dtb.walker            1                       # Total bandwidth to/from this memory (bytes/s)
system.mem_ctrls.bw_total::cpu09.itb.walker            0                       # Total bandwidth to/from this memory (bytes/s)
system.mem_ctrls.bw_total::cpu09.inst              42                       # Total bandwidth to/from this memory (bytes/s)
system.mem_ctrls.bw_total::cpu09.data             137                       # Total bandwidth to/from this memory (bytes/s)
system.mem_ctrls.bw_total::cpu10.dtb.walker            1                       # Total bandwidth to/from this memory (bytes/s)
system.mem_ctrls.bw_total::cpu10.itb.walker            0                       # Total bandwidth to/from this memory (bytes/s)
system.mem_ctrls.bw_total::cpu10.inst              25                       # Total bandwidth to/from this memory (bytes/s)
system.mem_ctrls.bw_total::cpu10.data              91                       # Total bandwidth to/from this memory (bytes/s)
system.mem_ctrls.bw_total::cpu11.dtb.walker           27                       # Total bandwidth to/from this memory (bytes/s)
system.mem_ctrls.bw_total::cpu11.itb.walker            5                       # Total bandwidth to/from this memory (bytes/s)
system.mem_ctrls.bw_total::cpu11.inst             342                       # Total bandwidth to/from this memory (bytes/s)
system.mem_ctrls.bw_total::cpu11.data             311                       # Total bandwidth to/from this memory (bytes/s)
system.mem_ctrls.bw_total::cpu12.dtb.walker            1                       # Total bandwidth to/from this memory (bytes/s)
system.mem_ctrls.bw_total::cpu12.itb.walker            1                       # Total bandwidth to/from this memory (bytes/s)
system.mem_ctrls.bw_total::cpu12.inst              47                       # Total bandwidth to/from this memory (bytes/s)
system.mem_ctrls.bw_total::cpu12.data             143                       # Total bandwidth to/from this memory (bytes/s)
system.mem_ctrls.bw_total::cpu13.dtb.walker            5                       # Total bandwidth to/from this memory (bytes/s)
system.mem_ctrls.bw_total::cpu13.itb.walker            1                       # Total bandwidth to/from this memory (bytes/s)
system.mem_ctrls.bw_total::cpu13.inst             106                       # Total bandwidth to/from this memory (bytes/s)
system.mem_ctrls.bw_total::cpu13.data             139                       # Total bandwidth to/from this memory (bytes/s)
system.mem_ctrls.bw_total::cpu14.dtb.walker          226                       # Total bandwidth to/from this memory (bytes/s)
system.mem_ctrls.bw_total::cpu14.itb.walker          154                       # Total bandwidth to/from this memory (bytes/s)
system.mem_ctrls.bw_total::cpu14.inst            3117                       # Total bandwidth to/from this memory (bytes/s)
system.mem_ctrls.bw_total::cpu14.data            2561                       # Total bandwidth to/from this memory (bytes/s)
system.mem_ctrls.bw_total::cpu15.dtb.walker            9                       # Total bandwidth to/from this memory (bytes/s)
system.mem_ctrls.bw_total::cpu15.itb.walker            3                       # Total bandwidth to/from this memory (bytes/s)
system.mem_ctrls.bw_total::cpu15.inst             225                       # Total bandwidth to/from this memory (bytes/s)
system.mem_ctrls.bw_total::cpu15.data             240                       # Total bandwidth to/from this memory (bytes/s)
system.mem_ctrls.bw_total::total                19253                       # Total bandwidth to/from this memory (bytes/s)
system.mem_ctrls.readReqs                           0                       # Number of read requests accepted
system.mem_ctrls.writeReqs                          0                       # Number of write requests accepted
system.mem_ctrls.readBursts                         0                       # Number of DRAM read bursts, including those serviced by the write queue
system.mem_ctrls.writeBursts                        0                       # Number of DRAM write bursts, including those merged in the write queue
system.mem_ctrls.bytesReadDRAM                      0                       # Total number of bytes read from DRAM
system.mem_ctrls.bytesReadWrQ                       0                       # Total number of bytes read from write queue
system.mem_ctrls.bytesWritten                       0                       # Total number of bytes written to DRAM
system.mem_ctrls.bytesReadSys                       0                       # Total read bytes from the system interface side
system.mem_ctrls.bytesWrittenSys                    0                       # Total written bytes from the system interface side
system.mem_ctrls.servicedByWrQ                      0                       # Number of DRAM read bursts serviced by the write queue
system.mem_ctrls.mergedWrBursts                     0                       # Number of DRAM write bursts merged with an existing one
system.mem_ctrls.neitherReadNorWriteReqs            0                       # Number of requests that are neither read nor write
system.mem_ctrls.perBankRdBursts::0                 0                       # Per bank write bursts
system.mem_ctrls.perBankRdBursts::1                 0                       # Per bank write bursts
system.mem_ctrls.perBankRdBursts::2                 0                       # Per bank write bursts
system.mem_ctrls.perBankRdBursts::3                 0                       # Per bank write bursts
system.mem_ctrls.perBankRdBursts::4                 0                       # Per bank write bursts
system.mem_ctrls.perBankRdBursts::5                 0                       # Per bank write bursts
system.mem_ctrls.perBankRdBursts::6                 0                       # Per bank write bursts
system.mem_ctrls.perBankRdBursts::7                 0                       # Per bank write bursts
system.mem_ctrls.perBankRdBursts::8                 0                       # Per bank write bursts
system.mem_ctrls.perBankRdBursts::9                 0                       # Per bank write bursts
system.mem_ctrls.perBankRdBursts::10                0                       # Per bank write bursts
system.mem_ctrls.perBankRdBursts::11                0                       # Per bank write bursts
system.mem_ctrls.perBankRdBursts::12                0                       # Per bank write bursts
system.mem_ctrls.perBankRdBursts::13                0                       # Per bank write bursts
system.mem_ctrls.perBankRdBursts::14                0                       # Per bank write bursts
system.mem_ctrls.perBankRdBursts::15                0                       # Per bank write bursts
system.mem_ctrls.perBankRdBursts::16                0                       # Per bank write bursts
system.mem_ctrls.perBankRdBursts::17                0                       # Per bank write bursts
system.mem_ctrls.perBankRdBursts::18                0                       # Per bank write bursts
system.mem_ctrls.perBankRdBursts::19                0                       # Per bank write bursts
system.mem_ctrls.perBankRdBursts::20                0                       # Per bank write bursts
system.mem_ctrls.perBankRdBursts::21                0                       # Per bank write bursts
system.mem_ctrls.perBankRdBursts::22                0                       # Per bank write bursts
system.mem_ctrls.perBankRdBursts::23                0                       # Per bank write bursts
system.mem_ctrls.perBankRdBursts::24                0                       # Per bank write bursts
system.mem_ctrls.perBankRdBursts::25                0                       # Per bank write bursts
system.mem_ctrls.perBankRdBursts::26                0                       # Per bank write bursts
system.mem_ctrls.perBankRdBursts::27                0                       # Per bank write bursts
system.mem_ctrls.perBankRdBursts::28                0                       # Per bank write bursts
system.mem_ctrls.perBankRdBursts::29                0                       # Per bank write bursts
system.mem_ctrls.perBankRdBursts::30                0                       # Per bank write bursts
system.mem_ctrls.perBankRdBursts::31                0                       # Per bank write bursts
system.mem_ctrls.perBankWrBursts::0                 0                       # Per bank write bursts
system.mem_ctrls.perBankWrBursts::1                 0                       # Per bank write bursts
system.mem_ctrls.perBankWrBursts::2                 0                       # Per bank write bursts
system.mem_ctrls.perBankWrBursts::3                 0                       # Per bank write bursts
system.mem_ctrls.perBankWrBursts::4                 0                       # Per bank write bursts
system.mem_ctrls.perBankWrBursts::5                 0                       # Per bank write bursts
system.mem_ctrls.perBankWrBursts::6                 0                       # Per bank write bursts
system.mem_ctrls.perBankWrBursts::7                 0                       # Per bank write bursts
system.mem_ctrls.perBankWrBursts::8                 0                       # Per bank write bursts
system.mem_ctrls.perBankWrBursts::9                 0                       # Per bank write bursts
system.mem_ctrls.perBankWrBursts::10                0                       # Per bank write bursts
system.mem_ctrls.perBankWrBursts::11                0                       # Per bank write bursts
system.mem_ctrls.perBankWrBursts::12                0                       # Per bank write bursts
system.mem_ctrls.perBankWrBursts::13                0                       # Per bank write bursts
system.mem_ctrls.perBankWrBursts::14                0                       # Per bank write bursts
system.mem_ctrls.perBankWrBursts::15                0                       # Per bank write bursts
system.mem_ctrls.perBankWrBursts::16                0                       # Per bank write bursts
system.mem_ctrls.perBankWrBursts::17                0                       # Per bank write bursts
system.mem_ctrls.perBankWrBursts::18                0                       # Per bank write bursts
system.mem_ctrls.perBankWrBursts::19                0                       # Per bank write bursts
system.mem_ctrls.perBankWrBursts::20                0                       # Per bank write bursts
system.mem_ctrls.perBankWrBursts::21                0                       # Per bank write bursts
system.mem_ctrls.perBankWrBursts::22                0                       # Per bank write bursts
system.mem_ctrls.perBankWrBursts::23                0                       # Per bank write bursts
system.mem_ctrls.perBankWrBursts::24                0                       # Per bank write bursts
system.mem_ctrls.perBankWrBursts::25                0                       # Per bank write bursts
system.mem_ctrls.perBankWrBursts::26                0                       # Per bank write bursts
system.mem_ctrls.perBankWrBursts::27                0                       # Per bank write bursts
system.mem_ctrls.perBankWrBursts::28                0                       # Per bank write bursts
system.mem_ctrls.perBankWrBursts::29                0                       # Per bank write bursts
system.mem_ctrls.perBankWrBursts::30                0                       # Per bank write bursts
system.mem_ctrls.perBankWrBursts::31                0                       # Per bank write bursts
system.mem_ctrls.numRdRetry                         0                       # Number of times read queue was full causing retry
system.mem_ctrls.numWrRetry                         0                       # Number of times write queue was full causing retry
system.mem_ctrls.totGap                             0                       # Total gap between requests
system.mem_ctrls.readPktSize::0                     0                       # Read request sizes (log2)
system.mem_ctrls.readPktSize::1                     0                       # Read request sizes (log2)
system.mem_ctrls.readPktSize::2                     0                       # Read request sizes (log2)
system.mem_ctrls.readPktSize::3                     0                       # Read request sizes (log2)
system.mem_ctrls.readPktSize::4                     0                       # Read request sizes (log2)
system.mem_ctrls.readPktSize::5                     0                       # Read request sizes (log2)
system.mem_ctrls.readPktSize::6                     0                       # Read request sizes (log2)
system.mem_ctrls.writePktSize::0                    0                       # Write request sizes (log2)
system.mem_ctrls.writePktSize::1                    0                       # Write request sizes (log2)
system.mem_ctrls.writePktSize::2                    0                       # Write request sizes (log2)
system.mem_ctrls.writePktSize::3                    0                       # Write request sizes (log2)
system.mem_ctrls.writePktSize::4                    0                       # Write request sizes (log2)
system.mem_ctrls.writePktSize::5                    0                       # Write request sizes (log2)
system.mem_ctrls.writePktSize::6                    0                       # Write request sizes (log2)
system.mem_ctrls.rdQLenPdf::0                       0                       # What read queue length does an incoming req see
system.mem_ctrls.rdQLenPdf::1                       0                       # What read queue length does an incoming req see
system.mem_ctrls.rdQLenPdf::2                       0                       # What read queue length does an incoming req see
system.mem_ctrls.rdQLenPdf::3                       0                       # What read queue length does an incoming req see
system.mem_ctrls.rdQLenPdf::4                       0                       # What read queue length does an incoming req see
system.mem_ctrls.rdQLenPdf::5                       0                       # What read queue length does an incoming req see
system.mem_ctrls.rdQLenPdf::6                       0                       # What read queue length does an incoming req see
system.mem_ctrls.rdQLenPdf::7                       0                       # What read queue length does an incoming req see
system.mem_ctrls.rdQLenPdf::8                       0                       # What read queue length does an incoming req see
system.mem_ctrls.rdQLenPdf::9                       0                       # What read queue length does an incoming req see
system.mem_ctrls.rdQLenPdf::10                      0                       # What read queue length does an incoming req see
system.mem_ctrls.rdQLenPdf::11                      0                       # What read queue length does an incoming req see
system.mem_ctrls.rdQLenPdf::12                      0                       # What read queue length does an incoming req see
system.mem_ctrls.rdQLenPdf::13                      0                       # What read queue length does an incoming req see
system.mem_ctrls.rdQLenPdf::14                      0                       # What read queue length does an incoming req see
system.mem_ctrls.rdQLenPdf::15                      0                       # What read queue length does an incoming req see
system.mem_ctrls.rdQLenPdf::16                      0                       # What read queue length does an incoming req see
system.mem_ctrls.rdQLenPdf::17                      0                       # What read queue length does an incoming req see
system.mem_ctrls.rdQLenPdf::18                      0                       # What read queue length does an incoming req see
system.mem_ctrls.rdQLenPdf::19                      0                       # What read queue length does an incoming req see
system.mem_ctrls.rdQLenPdf::20                      0                       # What read queue length does an incoming req see
system.mem_ctrls.rdQLenPdf::21                      0                       # What read queue length does an incoming req see
system.mem_ctrls.rdQLenPdf::22                      0                       # What read queue length does an incoming req see
system.mem_ctrls.rdQLenPdf::23                      0                       # What read queue length does an incoming req see
system.mem_ctrls.rdQLenPdf::24                      0                       # What read queue length does an incoming req see
system.mem_ctrls.rdQLenPdf::25                      0                       # What read queue length does an incoming req see
system.mem_ctrls.rdQLenPdf::26                      0                       # What read queue length does an incoming req see
system.mem_ctrls.rdQLenPdf::27                      0                       # What read queue length does an incoming req see
system.mem_ctrls.rdQLenPdf::28                      0                       # What read queue length does an incoming req see
system.mem_ctrls.rdQLenPdf::29                      0                       # What read queue length does an incoming req see
system.mem_ctrls.rdQLenPdf::30                      0                       # What read queue length does an incoming req see
system.mem_ctrls.rdQLenPdf::31                      0                       # What read queue length does an incoming req see
system.mem_ctrls.rdQLenPdf::32                      0                       # What read queue length does an incoming req see
system.mem_ctrls.rdQLenPdf::33                      0                       # What read queue length does an incoming req see
system.mem_ctrls.rdQLenPdf::34                      0                       # What read queue length does an incoming req see
system.mem_ctrls.rdQLenPdf::35                      0                       # What read queue length does an incoming req see
system.mem_ctrls.rdQLenPdf::36                      0                       # What read queue length does an incoming req see
system.mem_ctrls.rdQLenPdf::37                      0                       # What read queue length does an incoming req see
system.mem_ctrls.rdQLenPdf::38                      0                       # What read queue length does an incoming req see
system.mem_ctrls.rdQLenPdf::39                      0                       # What read queue length does an incoming req see
system.mem_ctrls.rdQLenPdf::40                      0                       # What read queue length does an incoming req see
system.mem_ctrls.rdQLenPdf::41                      0                       # What read queue length does an incoming req see
system.mem_ctrls.rdQLenPdf::42                      0                       # What read queue length does an incoming req see
system.mem_ctrls.rdQLenPdf::43                      0                       # What read queue length does an incoming req see
system.mem_ctrls.rdQLenPdf::44                      0                       # What read queue length does an incoming req see
system.mem_ctrls.rdQLenPdf::45                      0                       # What read queue length does an incoming req see
system.mem_ctrls.rdQLenPdf::46                      0                       # What read queue length does an incoming req see
system.mem_ctrls.rdQLenPdf::47                      0                       # What read queue length does an incoming req see
system.mem_ctrls.rdQLenPdf::48                      0                       # What read queue length does an incoming req see
system.mem_ctrls.rdQLenPdf::49                      0                       # What read queue length does an incoming req see
system.mem_ctrls.rdQLenPdf::50                      0                       # What read queue length does an incoming req see
system.mem_ctrls.rdQLenPdf::51                      0                       # What read queue length does an incoming req see
system.mem_ctrls.rdQLenPdf::52                      0                       # What read queue length does an incoming req see
system.mem_ctrls.rdQLenPdf::53                      0                       # What read queue length does an incoming req see
system.mem_ctrls.rdQLenPdf::54                      0                       # What read queue length does an incoming req see
system.mem_ctrls.rdQLenPdf::55                      0                       # What read queue length does an incoming req see
system.mem_ctrls.rdQLenPdf::56                      0                       # What read queue length does an incoming req see
system.mem_ctrls.rdQLenPdf::57                      0                       # What read queue length does an incoming req see
system.mem_ctrls.rdQLenPdf::58                      0                       # What read queue length does an incoming req see
system.mem_ctrls.rdQLenPdf::59                      0                       # What read queue length does an incoming req see
system.mem_ctrls.rdQLenPdf::60                      0                       # What read queue length does an incoming req see
system.mem_ctrls.rdQLenPdf::61                      0                       # What read queue length does an incoming req see
system.mem_ctrls.rdQLenPdf::62                      0                       # What read queue length does an incoming req see
system.mem_ctrls.rdQLenPdf::63                      0                       # What read queue length does an incoming req see
system.mem_ctrls.wrQLenPdf::0                       0                       # What write queue length does an incoming req see
system.mem_ctrls.wrQLenPdf::1                       0                       # What write queue length does an incoming req see
system.mem_ctrls.wrQLenPdf::2                       0                       # What write queue length does an incoming req see
system.mem_ctrls.wrQLenPdf::3                       0                       # What write queue length does an incoming req see
system.mem_ctrls.wrQLenPdf::4                       0                       # What write queue length does an incoming req see
system.mem_ctrls.wrQLenPdf::5                       0                       # What write queue length does an incoming req see
system.mem_ctrls.wrQLenPdf::6                       0                       # What write queue length does an incoming req see
system.mem_ctrls.wrQLenPdf::7                       0                       # What write queue length does an incoming req see
system.mem_ctrls.wrQLenPdf::8                       0                       # What write queue length does an incoming req see
system.mem_ctrls.wrQLenPdf::9                       0                       # What write queue length does an incoming req see
system.mem_ctrls.wrQLenPdf::10                      0                       # What write queue length does an incoming req see
system.mem_ctrls.wrQLenPdf::11                      0                       # What write queue length does an incoming req see
system.mem_ctrls.wrQLenPdf::12                      0                       # What write queue length does an incoming req see
system.mem_ctrls.wrQLenPdf::13                      0                       # What write queue length does an incoming req see
system.mem_ctrls.wrQLenPdf::14                      0                       # What write queue length does an incoming req see
system.mem_ctrls.wrQLenPdf::15                      0                       # What write queue length does an incoming req see
system.mem_ctrls.wrQLenPdf::16                      0                       # What write queue length does an incoming req see
system.mem_ctrls.wrQLenPdf::17                      0                       # What write queue length does an incoming req see
system.mem_ctrls.wrQLenPdf::18                      0                       # What write queue length does an incoming req see
system.mem_ctrls.wrQLenPdf::19                      0                       # What write queue length does an incoming req see
system.mem_ctrls.wrQLenPdf::20                      0                       # What write queue length does an incoming req see
system.mem_ctrls.wrQLenPdf::21                      0                       # What write queue length does an incoming req see
system.mem_ctrls.wrQLenPdf::22                      0                       # What write queue length does an incoming req see
system.mem_ctrls.wrQLenPdf::23                      0                       # What write queue length does an incoming req see
system.mem_ctrls.wrQLenPdf::24                      0                       # What write queue length does an incoming req see
system.mem_ctrls.wrQLenPdf::25                      0                       # What write queue length does an incoming req see
system.mem_ctrls.wrQLenPdf::26                      0                       # What write queue length does an incoming req see
system.mem_ctrls.wrQLenPdf::27                      0                       # What write queue length does an incoming req see
system.mem_ctrls.wrQLenPdf::28                      0                       # What write queue length does an incoming req see
system.mem_ctrls.wrQLenPdf::29                      0                       # What write queue length does an incoming req see
system.mem_ctrls.wrQLenPdf::30                      0                       # What write queue length does an incoming req see
system.mem_ctrls.wrQLenPdf::31                      0                       # What write queue length does an incoming req see
system.mem_ctrls.wrQLenPdf::32                      0                       # What write queue length does an incoming req see
system.mem_ctrls.wrQLenPdf::33                      0                       # What write queue length does an incoming req see
system.mem_ctrls.wrQLenPdf::34                      0                       # What write queue length does an incoming req see
system.mem_ctrls.wrQLenPdf::35                      0                       # What write queue length does an incoming req see
system.mem_ctrls.wrQLenPdf::36                      0                       # What write queue length does an incoming req see
system.mem_ctrls.wrQLenPdf::37                      0                       # What write queue length does an incoming req see
system.mem_ctrls.wrQLenPdf::38                      0                       # What write queue length does an incoming req see
system.mem_ctrls.wrQLenPdf::39                      0                       # What write queue length does an incoming req see
system.mem_ctrls.wrQLenPdf::40                      0                       # What write queue length does an incoming req see
system.mem_ctrls.wrQLenPdf::41                      0                       # What write queue length does an incoming req see
system.mem_ctrls.wrQLenPdf::42                      0                       # What write queue length does an incoming req see
system.mem_ctrls.wrQLenPdf::43                      0                       # What write queue length does an incoming req see
system.mem_ctrls.wrQLenPdf::44                      0                       # What write queue length does an incoming req see
system.mem_ctrls.wrQLenPdf::45                      0                       # What write queue length does an incoming req see
system.mem_ctrls.wrQLenPdf::46                      0                       # What write queue length does an incoming req see
system.mem_ctrls.wrQLenPdf::47                      0                       # What write queue length does an incoming req see
system.mem_ctrls.wrQLenPdf::48                      0                       # What write queue length does an incoming req see
system.mem_ctrls.wrQLenPdf::49                      0                       # What write queue length does an incoming req see
system.mem_ctrls.wrQLenPdf::50                      0                       # What write queue length does an incoming req see
system.mem_ctrls.wrQLenPdf::51                      0                       # What write queue length does an incoming req see
system.mem_ctrls.wrQLenPdf::52                      0                       # What write queue length does an incoming req see
system.mem_ctrls.wrQLenPdf::53                      0                       # What write queue length does an incoming req see
system.mem_ctrls.wrQLenPdf::54                      0                       # What write queue length does an incoming req see
system.mem_ctrls.wrQLenPdf::55                      0                       # What write queue length does an incoming req see
system.mem_ctrls.wrQLenPdf::56                      0                       # What write queue length does an incoming req see
system.mem_ctrls.wrQLenPdf::57                      0                       # What write queue length does an incoming req see
system.mem_ctrls.wrQLenPdf::58                      0                       # What write queue length does an incoming req see
system.mem_ctrls.wrQLenPdf::59                      0                       # What write queue length does an incoming req see
system.mem_ctrls.wrQLenPdf::60                      0                       # What write queue length does an incoming req see
system.mem_ctrls.wrQLenPdf::61                      0                       # What write queue length does an incoming req see
system.mem_ctrls.wrQLenPdf::62                      0                       # What write queue length does an incoming req see
system.mem_ctrls.wrQLenPdf::63                      0                       # What write queue length does an incoming req see
system.mem_ctrls.wrQLenPdf::64                      0                       # What write queue length does an incoming req see
system.mem_ctrls.wrQLenPdf::65                      0                       # What write queue length does an incoming req see
system.mem_ctrls.wrQLenPdf::66                      0                       # What write queue length does an incoming req see
system.mem_ctrls.wrQLenPdf::67                      0                       # What write queue length does an incoming req see
system.mem_ctrls.wrQLenPdf::68                      0                       # What write queue length does an incoming req see
system.mem_ctrls.wrQLenPdf::69                      0                       # What write queue length does an incoming req see
system.mem_ctrls.wrQLenPdf::70                      0                       # What write queue length does an incoming req see
system.mem_ctrls.wrQLenPdf::71                      0                       # What write queue length does an incoming req see
system.mem_ctrls.wrQLenPdf::72                      0                       # What write queue length does an incoming req see
system.mem_ctrls.wrQLenPdf::73                      0                       # What write queue length does an incoming req see
system.mem_ctrls.wrQLenPdf::74                      0                       # What write queue length does an incoming req see
system.mem_ctrls.wrQLenPdf::75                      0                       # What write queue length does an incoming req see
system.mem_ctrls.wrQLenPdf::76                      0                       # What write queue length does an incoming req see
system.mem_ctrls.wrQLenPdf::77                      0                       # What write queue length does an incoming req see
system.mem_ctrls.wrQLenPdf::78                      0                       # What write queue length does an incoming req see
system.mem_ctrls.wrQLenPdf::79                      0                       # What write queue length does an incoming req see
system.mem_ctrls.wrQLenPdf::80                      0                       # What write queue length does an incoming req see
system.mem_ctrls.wrQLenPdf::81                      0                       # What write queue length does an incoming req see
system.mem_ctrls.wrQLenPdf::82                      0                       # What write queue length does an incoming req see
system.mem_ctrls.wrQLenPdf::83                      0                       # What write queue length does an incoming req see
system.mem_ctrls.wrQLenPdf::84                      0                       # What write queue length does an incoming req see
system.mem_ctrls.wrQLenPdf::85                      0                       # What write queue length does an incoming req see
system.mem_ctrls.wrQLenPdf::86                      0                       # What write queue length does an incoming req see
system.mem_ctrls.wrQLenPdf::87                      0                       # What write queue length does an incoming req see
system.mem_ctrls.wrQLenPdf::88                      0                       # What write queue length does an incoming req see
system.mem_ctrls.wrQLenPdf::89                      0                       # What write queue length does an incoming req see
system.mem_ctrls.wrQLenPdf::90                      0                       # What write queue length does an incoming req see
system.mem_ctrls.wrQLenPdf::91                      0                       # What write queue length does an incoming req see
system.mem_ctrls.wrQLenPdf::92                      0                       # What write queue length does an incoming req see
system.mem_ctrls.wrQLenPdf::93                      0                       # What write queue length does an incoming req see
system.mem_ctrls.wrQLenPdf::94                      0                       # What write queue length does an incoming req see
system.mem_ctrls.wrQLenPdf::95                      0                       # What write queue length does an incoming req see
system.mem_ctrls.wrQLenPdf::96                      0                       # What write queue length does an incoming req see
system.mem_ctrls.wrQLenPdf::97                      0                       # What write queue length does an incoming req see
system.mem_ctrls.wrQLenPdf::98                      0                       # What write queue length does an incoming req see
system.mem_ctrls.wrQLenPdf::99                      0                       # What write queue length does an incoming req see
system.mem_ctrls.wrQLenPdf::100                     0                       # What write queue length does an incoming req see
system.mem_ctrls.wrQLenPdf::101                     0                       # What write queue length does an incoming req see
system.mem_ctrls.wrQLenPdf::102                     0                       # What write queue length does an incoming req see
system.mem_ctrls.wrQLenPdf::103                     0                       # What write queue length does an incoming req see
system.mem_ctrls.wrQLenPdf::104                     0                       # What write queue length does an incoming req see
system.mem_ctrls.wrQLenPdf::105                     0                       # What write queue length does an incoming req see
system.mem_ctrls.wrQLenPdf::106                     0                       # What write queue length does an incoming req see
system.mem_ctrls.wrQLenPdf::107                     0                       # What write queue length does an incoming req see
system.mem_ctrls.wrQLenPdf::108                     0                       # What write queue length does an incoming req see
system.mem_ctrls.wrQLenPdf::109                     0                       # What write queue length does an incoming req see
system.mem_ctrls.wrQLenPdf::110                     0                       # What write queue length does an incoming req see
system.mem_ctrls.wrQLenPdf::111                     0                       # What write queue length does an incoming req see
system.mem_ctrls.wrQLenPdf::112                     0                       # What write queue length does an incoming req see
system.mem_ctrls.wrQLenPdf::113                     0                       # What write queue length does an incoming req see
system.mem_ctrls.wrQLenPdf::114                     0                       # What write queue length does an incoming req see
system.mem_ctrls.wrQLenPdf::115                     0                       # What write queue length does an incoming req see
system.mem_ctrls.wrQLenPdf::116                     0                       # What write queue length does an incoming req see
system.mem_ctrls.wrQLenPdf::117                     0                       # What write queue length does an incoming req see
system.mem_ctrls.wrQLenPdf::118                     0                       # What write queue length does an incoming req see
system.mem_ctrls.wrQLenPdf::119                     0                       # What write queue length does an incoming req see
system.mem_ctrls.wrQLenPdf::120                     0                       # What write queue length does an incoming req see
system.mem_ctrls.wrQLenPdf::121                     0                       # What write queue length does an incoming req see
system.mem_ctrls.wrQLenPdf::122                     0                       # What write queue length does an incoming req see
system.mem_ctrls.wrQLenPdf::123                     0                       # What write queue length does an incoming req see
system.mem_ctrls.wrQLenPdf::124                     0                       # What write queue length does an incoming req see
system.mem_ctrls.wrQLenPdf::125                     0                       # What write queue length does an incoming req see
system.mem_ctrls.wrQLenPdf::126                     0                       # What write queue length does an incoming req see
system.mem_ctrls.wrQLenPdf::127                     0                       # What write queue length does an incoming req see
system.mem_ctrls.totQLat                            0                       # Total ticks spent queuing
system.mem_ctrls.totMemAccLat                       0                       # Total ticks spent from burst creation until serviced by the DRAM
system.mem_ctrls.totBusLat                          0                       # Total ticks spent in databus transfers
system.mem_ctrls.avgQLat                          nan                       # Average queueing delay per DRAM burst
system.mem_ctrls.avgBusLat                        nan                       # Average bus latency per DRAM burst
system.mem_ctrls.avgMemAccLat                     nan                       # Average memory access latency per DRAM burst
system.mem_ctrls.avgRdBW                         0.00                       # Average DRAM read bandwidth in MiByte/s
system.mem_ctrls.avgWrBW                         0.00                       # Average achieved write bandwidth in MiByte/s
system.mem_ctrls.avgRdBWSys                      0.00                       # Average system read bandwidth in MiByte/s
system.mem_ctrls.avgWrBWSys                      0.00                       # Average system write bandwidth in MiByte/s
system.mem_ctrls.peakBW                      19207.00                       # Theoretical peak bandwidth in MiByte/s
system.mem_ctrls.busUtil                         0.00                       # Data bus utilization in percentage
system.mem_ctrls.busUtilRead                     0.00                       # Data bus utilization in percentage for reads
system.mem_ctrls.busUtilWrite                    0.00                       # Data bus utilization in percentage for writes
system.mem_ctrls.avgRdQLen                       0.00                       # Average read queue length when enqueuing
system.mem_ctrls.avgWrQLen                       0.00                       # Average write queue length when enqueuing
system.mem_ctrls.readRowHits                        0                       # Number of row buffer hits during reads
system.mem_ctrls.writeRowHits                       0                       # Number of row buffer hits during writes
system.mem_ctrls.readRowHitRate                   nan                       # Row buffer hit rate for reads
system.mem_ctrls.writeRowHitRate                  nan                       # Row buffer hit rate for writes
system.mem_ctrls.avgGap                           nan                       # Average gap between requests
system.mem_ctrls.pageHitRate                      nan                       # Row buffer hit rate, read and write combined
system.mem_ctrls_0.actEnergy                        0                       # Energy for activate commands per rank (pJ)
system.mem_ctrls_0.preEnergy                        0                       # Energy for precharge commands per rank (pJ)
system.mem_ctrls_0.readEnergy                       0                       # Energy for read commands per rank (pJ)
system.mem_ctrls_0.writeEnergy                      0                       # Energy for write commands per rank (pJ)
system.mem_ctrls_0.refreshEnergy                    0                       # Energy for refresh commands per rank (pJ)
system.mem_ctrls_0.actBackEnergy                    0                       # Energy for active background per rank (pJ)
system.mem_ctrls_0.preBackEnergy         13862384241022538                       # Energy for precharge background per rank (pJ)
system.mem_ctrls_0.actPowerDownEnergy               0                       # Energy for active power-down per rank (pJ)
system.mem_ctrls_0.prePowerDownEnergy               0                       # Energy for precharge power-down per rank (pJ)
system.mem_ctrls_0.selfRefreshEnergy                0                       # Energy for self refresh per rank (pJ)
system.mem_ctrls_0.totalEnergy           13862384241022538                       # Total energy per rank (pJ)
system.mem_ctrls_0.averagePower            163.200000                       # Core power per rank (mW)
system.mem_ctrls_0.totalIdleTime                    0                       # Total Idle time Per DRAM Rank
system.mem_ctrls_0.memoryStateTime::IDLE 91688202963007504                       # Time in different power states
system.mem_ctrls_0.memoryStateTime::REF             0                       # Time in different power states
system.mem_ctrls_0.memoryStateTime::SREF            0                       # Time in different power states
system.mem_ctrls_0.memoryStateTime::PRE_PDN            0                       # Time in different power states
system.mem_ctrls_0.memoryStateTime::ACT             0                       # Time in different power states
system.mem_ctrls_0.memoryStateTime::ACT_PDN            0                       # Time in different power states
system.mem_ctrls_1.actEnergy                        0                       # Energy for activate commands per rank (pJ)
system.mem_ctrls_1.preEnergy                        0                       # Energy for precharge commands per rank (pJ)
system.mem_ctrls_1.readEnergy                       0                       # Energy for read commands per rank (pJ)
system.mem_ctrls_1.writeEnergy                      0                       # Energy for write commands per rank (pJ)
system.mem_ctrls_1.refreshEnergy                    0                       # Energy for refresh commands per rank (pJ)
system.mem_ctrls_1.actBackEnergy                    0                       # Energy for active background per rank (pJ)
system.mem_ctrls_1.preBackEnergy         13862384241022538                       # Energy for precharge background per rank (pJ)
system.mem_ctrls_1.actPowerDownEnergy               0                       # Energy for active power-down per rank (pJ)
system.mem_ctrls_1.prePowerDownEnergy               0                       # Energy for precharge power-down per rank (pJ)
system.mem_ctrls_1.selfRefreshEnergy                0                       # Energy for self refresh per rank (pJ)
[...]
system.tol2bus12.pkt_size::total            236049353                       # Cumulative packet size per connected master and slave (bytes)
system.tol2bus12.snoops                       3933509                       # Total snoops (count)
system.tol2bus12.snoopTraffic                 7405376                       # Total snoop traffic (bytes)
system.tol2bus12.snoop_fanout::samples        6352416                       # Request fanout histogram
system.tol2bus12.snoop_fanout::mean          0.106923                       # Request fanout histogram
system.tol2bus12.snoop_fanout::stdev         0.309080                       # Request fanout histogram
system.tol2bus12.snoop_fanout::underflows            0      0.00%      0.00% # Request fanout histogram
system.tol2bus12.snoop_fanout::0              5673322     89.31%     89.31% # Request fanout histogram
system.tol2bus12.snoop_fanout::1               678968     10.69%    100.00% # Request fanout histogram
system.tol2bus12.snoop_fanout::2                  126      0.00%    100.00% # Request fanout histogram
system.tol2bus12.snoop_fanout::overflows            0      0.00%    100.00% # Request fanout histogram
system.tol2bus12.snoop_fanout::min_value            0                       # Request fanout histogram
system.tol2bus12.snoop_fanout::max_value            2                       # Request fanout histogram
system.tol2bus12.snoop_fanout::total          6352416                       # Request fanout histogram
system.tol2bus12.directResponses                    0                       # auxiliar stat for checking how reasonable wireless model is
system.tol2bus13.snoop_filter.tot_requests     30769317                       # Total number of requests made to the snoop filter.
system.tol2bus13.snoop_filter.hit_single_requests     15416994                       # Number of requests hitting in the snoop filter with a single holder of the requested data.
system.tol2bus13.snoop_filter.hit_multi_requests          397                       # Number of requests hitting in the snoop filter with multiple (>1) holders of the requested data.
system.tol2bus13.snoop_filter.tot_snoops      1087298                       # Total number of snoops made to the snoop filter.
system.tol2bus13.snoop_filter.hit_single_snoops      1087255                       # Number of snoops hitting in the snoop filter with a single holder of the requested data.
system.tol2bus13.snoop_filter.hit_multi_snoops           43                       # Number of snoops hitting in the snoop filter with multiple (>1) holders of the requested data.
system.tol2bus13.pwrStateResidencyTicks::UNDEFINED 91688202963007504                       # Cumulative time (in ticks) in various power states
system.tol2bus13.trans_dist::ReadReq          5011143                       # Transaction distribution
system.tol2bus13.trans_dist::ReadResp        19395198                       # Transaction distribution
system.tol2bus13.trans_dist::WriteReq           12049                       # Transaction distribution
system.tol2bus13.trans_dist::WriteResp          12049                       # Transaction distribution
system.tol2bus13.trans_dist::WritebackDirty      2321357                       # Transaction distribution
system.tol2bus13.trans_dist::WritebackClean     10672908                       # Transaction distribution
system.tol2bus13.trans_dist::CleanEvict       2156762                       # Transaction distribution
system.tol2bus13.trans_dist::UpgradeReq        138405                       # Transaction distribution
system.tol2bus13.trans_dist::SCUpgradeReq       112866                       # Transaction distribution
system.tol2bus13.trans_dist::UpgradeResp       251271                       # Transaction distribution
system.tol2bus13.trans_dist::ReadExReq         748050                       # Transaction distribution
system.tol2bus13.trans_dist::ReadExResp        748050                       # Transaction distribution
system.tol2bus13.trans_dist::ReadCleanReq     10673420                       # Transaction distribution
system.tol2bus13.trans_dist::ReadSharedReq      3710635                       # Transaction distribution
system.tol2bus13.trans_dist::CleanSharedReq          128                       # Transaction distribution
system.tol2bus13.trans_dist::CleanSharedResp          128                       # Transaction distribution
system.tol2bus13.trans_dist::InvalidateReq       220626                       # Transaction distribution
system.tol2bus13.trans_dist::InvalidateResp       220626                       # Transaction distribution
system.tol2bus13.pkt_count_system.cpu13.icache.mem_side::system.l213.cpu_side     32019748                       # Packet count per connected master and slave (bytes)
system.tol2bus13.pkt_count_system.cpu13.dcache.mem_side::system.l213.cpu_side     14412753                       # Packet count per connected master and slave (bytes)
system.tol2bus13.pkt_count_system.cpu13.itb.walker.dma::system.l213.cpu_side      6552272                       # Packet count per connected master and slave (bytes)
system.tol2bus13.pkt_count_system.cpu13.dtb.walker.dma::system.l213.cpu_side      3420898                       # Packet count per connected master and slave (bytes)
system.tol2bus13.pkt_count::total            56405671                       # Packet count per connected master and slave (bytes)
system.tol2bus13.pkt_size_system.cpu13.icache.mem_side::system.l213.cpu_side   1366164992                       # Cumulative packet size per connected master and slave (bytes)
system.tol2bus13.pkt_size_system.cpu13.dcache.mem_side::system.l213.cpu_side    434069114                       # Cumulative packet size per connected master and slave (bytes)
system.tol2bus13.pkt_size_system.cpu13.itb.walker.dma::system.l213.cpu_side     26209088                       # Cumulative packet size per connected master and slave (bytes)
system.tol2bus13.pkt_size_system.cpu13.dtb.walker.dma::system.l213.cpu_side     13683592                       # Cumulative packet size per connected master and slave (bytes)
system.tol2bus13.pkt_size::total           1840126786                       # Cumulative packet size per connected master and slave (bytes)
system.tol2bus13.snoops                       6095180                       # Total snoops (count)
system.tol2bus13.snoopTraffic                 6420416                       # Total snoop traffic (bytes)
system.tol2bus13.snoop_fanout::samples       26386958                       # Request fanout histogram
system.tol2bus13.snoop_fanout::mean          0.041759                       # Request fanout histogram
system.tol2bus13.snoop_fanout::stdev         0.200047                       # Request fanout histogram
system.tol2bus13.snoop_fanout::underflows            0      0.00%      0.00% # Request fanout histogram
system.tol2bus13.snoop_fanout::0             25285103     95.82%     95.82% # Request fanout histogram
system.tol2bus13.snoop_fanout::1              1101812      4.18%    100.00% # Request fanout histogram
system.tol2bus13.snoop_fanout::2                   43      0.00%    100.00% # Request fanout histogram
system.tol2bus13.snoop_fanout::overflows            0      0.00%    100.00% # Request fanout histogram
system.tol2bus13.snoop_fanout::min_value            0                       # Request fanout histogram
system.tol2bus13.snoop_fanout::max_value            2                       # Request fanout histogram
system.tol2bus13.snoop_fanout::total         26386958                       # Request fanout histogram
system.tol2bus13.directResponses                    0                       # auxiliar stat for checking how reasonable wireless model is
system.tol2bus14.snoop_filter.tot_requests    502711920                       # Total number of requests made to the snoop filter.
system.tol2bus14.snoop_filter.hit_single_requests    251434400                       # Number of requests hitting in the snoop filter with a single holder of the requested data.
system.tol2bus14.snoop_filter.hit_multi_requests          241                       # Number of requests hitting in the snoop filter with multiple (>1) holders of the requested data.
system.tol2bus14.snoop_filter.tot_snoops      4053108                       # Total number of snoops made to the snoop filter.
system.tol2bus14.snoop_filter.hit_single_snoops      4053017                       # Number of snoops hitting in the snoop filter with a single holder of the requested data.
system.tol2bus14.snoop_filter.hit_multi_snoops           91                       # Number of snoops hitting in the snoop filter with multiple (>1) holders of the requested data.
system.tol2bus14.pwrStateResidencyTicks::UNDEFINED 91688202963007504                       # Cumulative time (in ticks) in various power states
system.tol2bus14.trans_dist::ReadReq         69297438                       # Transaction distribution
system.tol2bus14.trans_dist::ReadResp       308202898                       # Transaction distribution
system.tol2bus14.trans_dist::WriteReq           50380                       # Transaction distribution
system.tol2bus14.trans_dist::WriteResp          50380                       # Transaction distribution
system.tol2bus14.trans_dist::WritebackDirty     29226558                       # Transaction distribution
system.tol2bus14.trans_dist::WritebackClean    195685513                       # Transaction distribution
system.tol2bus14.trans_dist::CleanEvict      25561773                       # Transaction distribution
system.tol2bus14.trans_dist::UpgradeReq        541056                       # Transaction distribution
system.tol2bus14.trans_dist::SCUpgradeReq       391918                       # Transaction distribution
system.tol2bus14.trans_dist::UpgradeResp       932974                       # Transaction distribution
system.tol2bus14.trans_dist::ReadExReq        9511619                       # Transaction distribution
system.tol2bus14.trans_dist::ReadExResp       9511619                       # Transaction distribution
system.tol2bus14.trans_dist::ReadCleanReq    195686025                       # Transaction distribution
system.tol2bus14.trans_dist::ReadSharedReq     43219435                       # Transaction distribution
system.tol2bus14.trans_dist::CleanSharedReq          384                       # Transaction distribution
system.tol2bus14.trans_dist::CleanSharedResp          384                       # Transaction distribution
system.tol2bus14.trans_dist::InvalidateReq      2875122                       # Transaction distribution
system.tol2bus14.trans_dist::InvalidateResp      2875122                       # Transaction distribution
system.tol2bus14.pkt_count_system.cpu14.icache.mem_side::system.l214.cpu_side    587057563                       # Packet count per connected master and slave (bytes)
system.tol2bus14.pkt_count_system.cpu14.dcache.mem_side::system.l214.cpu_side    168046725                       # Packet count per connected master and slave (bytes)
system.tol2bus14.pkt_count_system.cpu14.itb.walker.dma::system.l214.cpu_side    118925782                       # Packet count per connected master and slave (bytes)
system.tol2bus14.pkt_count_system.cpu14.dtb.walker.dma::system.l214.cpu_side     19590528                       # Packet count per connected master and slave (bytes)
system.tol2bus14.pkt_count::total           893620598                       # Packet count per connected master and slave (bytes)
system.tol2bus14.pkt_size_system.cpu14.icache.mem_side::system.l214.cpu_side  25047778432                       # Cumulative packet size per connected master and slave (bytes)
system.tol2bus14.pkt_size_system.cpu14.dcache.mem_side::system.l214.cpu_side   5245645806                       # Cumulative packet size per connected master and slave (bytes)
system.tol2bus14.pkt_size_system.cpu14.itb.walker.dma::system.l214.cpu_side    475703128                       # Cumulative packet size per connected master and slave (bytes)
system.tol2bus14.pkt_size_system.cpu14.dtb.walker.dma::system.l214.cpu_side     78362112                       # Cumulative packet size per connected master and slave (bytes)
system.tol2bus14.pkt_size::total          30847489478                       # Cumulative packet size per connected master and slave (bytes)
system.tol2bus14.snoops                      15392128                       # Total snoops (count)
system.tol2bus14.snoopTraffic               127602944                       # Total snoop traffic (bytes)
system.tol2bus14.snoop_fanout::samples      335544521                       # Request fanout histogram
system.tol2bus14.snoop_fanout::mean          0.012117                       # Request fanout histogram
system.tol2bus14.snoop_fanout::stdev         0.109413                       # Request fanout histogram
system.tol2bus14.snoop_fanout::underflows            0      0.00%      0.00% # Request fanout histogram
system.tol2bus14.snoop_fanout::0            331478655     98.79%     98.79% # Request fanout histogram
system.tol2bus14.snoop_fanout::1              4065775      1.21%    100.00% # Request fanout histogram
system.tol2bus14.snoop_fanout::2                   91      0.00%    100.00% # Request fanout histogram
system.tol2bus14.snoop_fanout::overflows            0      0.00%    100.00% # Request fanout histogram
system.tol2bus14.snoop_fanout::min_value            0                       # Request fanout histogram
system.tol2bus14.snoop_fanout::max_value            2                       # Request fanout histogram
system.tol2bus14.snoop_fanout::total        335544521                       # Request fanout histogram
system.tol2bus14.directResponses                    0                       # auxiliar stat for checking how reasonable wireless model is
system.tol2bus15.snoop_filter.tot_requests     58776518                       # Total number of requests made to the snoop filter.
system.tol2bus15.snoop_filter.hit_single_requests     29454333                       # Number of requests hitting in the snoop filter with a single holder of the requested data.
system.tol2bus15.snoop_filter.hit_multi_requests          337                       # Number of requests hitting in the snoop filter with multiple (>1) holders of the requested data.
system.tol2bus15.snoop_filter.tot_snoops      1478674                       # Total number of snoops made to the snoop filter.
system.tol2bus15.snoop_filter.hit_single_snoops      1478607                       # Number of snoops hitting in the snoop filter with a single holder of the requested data.
system.tol2bus15.snoop_filter.hit_multi_snoops           67                       # Number of snoops hitting in the snoop filter with multiple (>1) holders of the requested data.
system.tol2bus15.pwrStateResidencyTicks::UNDEFINED 91688202963007504                       # Cumulative time (in ticks) in various power states
system.tol2bus15.trans_dist::ReadReq         10333479                       # Transaction distribution
system.tol2bus15.trans_dist::ReadResp        37966389                       # Transaction distribution
system.tol2bus15.trans_dist::WriteReq           20562                       # Transaction distribution
system.tol2bus15.trans_dist::WriteResp          20562                       # Transaction distribution
system.tol2bus15.trans_dist::WritebackDirty      3891471                       # Transaction distribution
system.tol2bus15.trans_dist::WritebackClean     20931534                       # Transaction distribution
system.tol2bus15.trans_dist::CleanEvict       4167421                       # Transaction distribution
system.tol2bus15.trans_dist::UpgradeReq        219425                       # Transaction distribution
system.tol2bus15.trans_dist::SCUpgradeReq       214259                       # Transaction distribution
system.tol2bus15.trans_dist::UpgradeResp       433684                       # Transaction distribution
system.tol2bus15.trans_dist::ReadExReq        1233995                       # Transaction distribution
system.tol2bus15.trans_dist::ReadExResp       1233995                       # Transaction distribution
system.tol2bus15.trans_dist::ReadCleanReq     20932046                       # Transaction distribution
system.tol2bus15.trans_dist::ReadSharedReq      6700864                       # Transaction distribution
system.tol2bus15.trans_dist::CleanSharedReq           64                       # Transaction distribution
system.tol2bus15.trans_dist::CleanSharedResp           64                       # Transaction distribution
system.tol2bus15.trans_dist::InvalidateReq       455737                       # Transaction distribution
system.tol2bus15.trans_dist::InvalidateResp       455737                       # Transaction distribution
system.tol2bus15.pkt_count_system.cpu15.icache.mem_side::system.l215.cpu_side     62795626                       # Packet count per connected master and slave (bytes)
system.tol2bus15.pkt_count_system.cpu15.dcache.mem_side::system.l215.cpu_side     25829682                       # Packet count per connected master and slave (bytes)
system.tol2bus15.pkt_count_system.cpu15.itb.walker.dma::system.l215.cpu_side     13276614                       # Packet count per connected master and slave (bytes)
system.tol2bus15.pkt_count_system.cpu15.dtb.walker.dma::system.l215.cpu_side      7309366                       # Packet count per connected master and slave (bytes)
system.tol2bus15.pkt_count::total           109211288                       # Packet count per connected master and slave (bytes)
system.tol2bus15.pkt_size_system.cpu15.icache.mem_side::system.l215.cpu_side   2679269120                       # Cumulative packet size per connected master and slave (bytes)
system.tol2bus15.pkt_size_system.cpu15.dcache.mem_side::system.l215.cpu_side    757129324                       # Cumulative packet size per connected master and slave (bytes)
system.tol2bus15.pkt_size_system.cpu15.itb.walker.dma::system.l215.cpu_side     53106456                       # Cumulative packet size per connected master and slave (bytes)
system.tol2bus15.pkt_size_system.cpu15.dtb.walker.dma::system.l215.cpu_side     29237464                       # Cumulative packet size per connected master and slave (bytes)
system.tol2bus15.pkt_size::total           3518742364                       # Cumulative packet size per connected master and slave (bytes)
system.tol2bus15.snoops                       7086995                       # Total snoops (count)
system.tol2bus15.snoopTraffic                 9996992                       # Total snoop traffic (bytes)
system.tol2bus15.snoop_fanout::samples       46650341                       # Request fanout histogram
system.tol2bus15.snoop_fanout::mean          0.032342                       # Request fanout histogram
system.tol2bus15.snoop_fanout::stdev         0.176916                       # Request fanout histogram
system.tol2bus15.snoop_fanout::underflows            0      0.00%      0.00% # Request fanout histogram
system.tol2bus15.snoop_fanout::0             45141628     96.77%     96.77% # Request fanout histogram
system.tol2bus15.snoop_fanout::1              1508646      3.23%    100.00% # Request fanout histogram
system.tol2bus15.snoop_fanout::2                   67      0.00%    100.00% # Request fanout histogram
system.tol2bus15.snoop_fanout::overflows            0      0.00%    100.00% # Request fanout histogram
system.tol2bus15.snoop_fanout::min_value            0                       # Request fanout histogram
system.tol2bus15.snoop_fanout::max_value            2                       # Request fanout histogram
system.tol2bus15.snoop_fanout::total         46650341                       # Request fanout histogram
system.tol2bus15.directResponses                    0                       # auxiliar stat for checking how reasonable wireless model is

---------- End Simulation Statistics   ----------
