
---------- Begin Simulation Statistics ----------
sim_seconds                               4144.490052                       # Number of seconds simulated
sim_ticks                                4144490051566000                       # Number of ticks simulated
final_tick                               10891613106347000                       # Number of ticks from beginning of simulation (restored from checkpoints and never reset)
sim_freq                                 1000000000000                       # Frequency of simulated ticks
host_inst_rate                                2569684                       # Simulator instruction rate (inst/s)
host_op_rate                                  2872406                       # Simulator op (including micro ops) rate (op/s)
host_tick_rate                           733274923794                       # Simulator tick rate (ticks/s)
host_mem_usage                                5041808                       # Number of bytes of host memory used
host_seconds                                  5652.03                       # Real time elapsed on the host
sim_insts                                 14523923045                       # Number of instructions simulated
sim_ops                                   16234915713                       # Number of ops (including micro ops) simulated
system.voltage_domain.voltage                       1                       # Voltage in Volts
system.clk_domain.clock                           625                       # Clock period in ticks
system.bootmem.pwrStateResidencyTicks::UNDEFINED 10891613106347000                       # Cumulative time (in ticks) in various power states
system.mem_ctrls.pwrStateResidencyTicks::UNDEFINED 10891613106347000                       # Cumulative time (in ticks) in various power states
system.mem_ctrls.bytes_read::cpu00.dtb.walker      1062976                       # Number of bytes read from this memory
system.mem_ctrls.bytes_read::cpu00.itb.walker       128192                       # Number of bytes read from this memory
system.mem_ctrls.bytes_read::cpu00.inst       6039616                       # Number of bytes read from this memory
system.mem_ctrls.bytes_read::cpu00.data     123307712                       # Number of bytes read from this memory
system.mem_ctrls.bytes_read::cpu01.dtb.walker        11776                       # Number of bytes read from this memory
system.mem_ctrls.bytes_read::cpu01.itb.walker        10688                       # Number of bytes read from this memory
system.mem_ctrls.bytes_read::cpu01.inst        795584                       # Number of bytes read from this memory
system.mem_ctrls.bytes_read::cpu01.data       1856896                       # Number of bytes read from this memory
system.mem_ctrls.bytes_read::cpu02.dtb.walker       731392                       # Number of bytes read from this memory
system.mem_ctrls.bytes_read::cpu02.itb.walker       108352                       # Number of bytes read from this memory
system.mem_ctrls.bytes_read::cpu02.inst       3900544                       # Number of bytes read from this memory
system.mem_ctrls.bytes_read::cpu02.data      66558848                       # Number of bytes read from this memory
system.mem_ctrls.bytes_read::cpu03.dtb.walker        12224                       # Number of bytes read from this memory
system.mem_ctrls.bytes_read::cpu03.itb.walker         7936                       # Number of bytes read from this memory
system.mem_ctrls.bytes_read::cpu03.inst       1177472                       # Number of bytes read from this memory
system.mem_ctrls.bytes_read::cpu03.data       1641408                       # Number of bytes read from this memory
system.mem_ctrls.bytes_read::cpu04.dtb.walker        15488                       # Number of bytes read from this memory
system.mem_ctrls.bytes_read::cpu04.itb.walker         8960                       # Number of bytes read from this memory
system.mem_ctrls.bytes_read::cpu04.inst        797824                       # Number of bytes read from this memory
system.mem_ctrls.bytes_read::cpu04.data        713472                       # Number of bytes read from this memory
system.mem_ctrls.bytes_read::cpu05.dtb.walker         5312                       # Number of bytes read from this memory
system.mem_ctrls.bytes_read::cpu05.itb.walker         5696                       # Number of bytes read from this memory
system.mem_ctrls.bytes_read::cpu05.inst        521408                       # Number of bytes read from this memory
system.mem_ctrls.bytes_read::cpu05.data        635200                       # Number of bytes read from this memory
system.mem_ctrls.bytes_read::cpu06.dtb.walker        11200                       # Number of bytes read from this memory
system.mem_ctrls.bytes_read::cpu06.itb.walker        14848                       # Number of bytes read from this memory
system.mem_ctrls.bytes_read::cpu06.inst       1169728                       # Number of bytes read from this memory
system.mem_ctrls.bytes_read::cpu06.data       1705088                       # Number of bytes read from this memory
system.mem_ctrls.bytes_read::cpu07.dtb.walker        10944                       # Number of bytes read from this memory
system.mem_ctrls.bytes_read::cpu07.itb.walker         7424                       # Number of bytes read from this memory
system.mem_ctrls.bytes_read::cpu07.inst        728192                       # Number of bytes read from this memory
system.mem_ctrls.bytes_read::cpu07.data       1041984                       # Number of bytes read from this memory
system.mem_ctrls.bytes_read::cpu08.dtb.walker      2006592                       # Number of bytes read from this memory
system.mem_ctrls.bytes_read::cpu08.itb.walker        63360                       # Number of bytes read from this memory
system.mem_ctrls.bytes_read::cpu08.inst       3854912                       # Number of bytes read from this memory
system.mem_ctrls.bytes_read::cpu08.data      78107840                       # Number of bytes read from this memory
system.mem_ctrls.bytes_read::cpu09.dtb.walker        11456                       # Number of bytes read from this memory
system.mem_ctrls.bytes_read::cpu09.itb.walker         5696                       # Number of bytes read from this memory
system.mem_ctrls.bytes_read::cpu09.inst        807488                       # Number of bytes read from this memory
system.mem_ctrls.bytes_read::cpu09.data       1190272                       # Number of bytes read from this memory
system.mem_ctrls.bytes_read::cpu10.dtb.walker         8128                       # Number of bytes read from this memory
system.mem_ctrls.bytes_read::cpu10.itb.walker         5312                       # Number of bytes read from this memory
system.mem_ctrls.bytes_read::cpu10.inst        495616                       # Number of bytes read from this memory
system.mem_ctrls.bytes_read::cpu10.data        672576                       # Number of bytes read from this memory
system.mem_ctrls.bytes_read::cpu11.dtb.walker        21952                       # Number of bytes read from this memory
system.mem_ctrls.bytes_read::cpu11.itb.walker        12928                       # Number of bytes read from this memory
system.mem_ctrls.bytes_read::cpu11.inst       1346624                       # Number of bytes read from this memory
system.mem_ctrls.bytes_read::cpu11.data       2065984                       # Number of bytes read from this memory
system.mem_ctrls.bytes_read::cpu12.dtb.walker        10432                       # Number of bytes read from this memory
system.mem_ctrls.bytes_read::cpu12.itb.walker         5696                       # Number of bytes read from this memory
system.mem_ctrls.bytes_read::cpu12.inst        621952                       # Number of bytes read from this memory
system.mem_ctrls.bytes_read::cpu12.data        725504                       # Number of bytes read from this memory
system.mem_ctrls.bytes_read::cpu13.dtb.walker        21184                       # Number of bytes read from this memory
system.mem_ctrls.bytes_read::cpu13.itb.walker        17280                       # Number of bytes read from this memory
system.mem_ctrls.bytes_read::cpu13.inst        875776                       # Number of bytes read from this memory
system.mem_ctrls.bytes_read::cpu13.data        828544                       # Number of bytes read from this memory
system.mem_ctrls.bytes_read::cpu14.dtb.walker       978176                       # Number of bytes read from this memory
system.mem_ctrls.bytes_read::cpu14.itb.walker       814720                       # Number of bytes read from this memory
system.mem_ctrls.bytes_read::cpu14.inst      12955840                       # Number of bytes read from this memory
system.mem_ctrls.bytes_read::cpu14.data      10954112                       # Number of bytes read from this memory
system.mem_ctrls.bytes_read::cpu15.dtb.walker        39744                       # Number of bytes read from this memory
system.mem_ctrls.bytes_read::cpu15.itb.walker        20992                       # Number of bytes read from this memory
system.mem_ctrls.bytes_read::cpu15.inst       1555136                       # Number of bytes read from this memory
system.mem_ctrls.bytes_read::cpu15.data       1889792                       # Number of bytes read from this memory
system.mem_ctrls.bytes_read::total          337736000                       # Number of bytes read from this memory
system.mem_ctrls.bytes_inst_read::cpu00.inst      6039616                       # Number of instructions bytes read from this memory
system.mem_ctrls.bytes_inst_read::cpu01.inst       795584                       # Number of instructions bytes read from this memory
system.mem_ctrls.bytes_inst_read::cpu02.inst      3900544                       # Number of instructions bytes read from this memory
system.mem_ctrls.bytes_inst_read::cpu03.inst      1177472                       # Number of instructions bytes read from this memory
system.mem_ctrls.bytes_inst_read::cpu04.inst       797824                       # Number of instructions bytes read from this memory
system.mem_ctrls.bytes_inst_read::cpu05.inst       521408                       # Number of instructions bytes read from this memory
system.mem_ctrls.bytes_inst_read::cpu06.inst      1169728                       # Number of instructions bytes read from this memory
system.mem_ctrls.bytes_inst_read::cpu07.inst       728192                       # Number of instructions bytes read from this memory
system.mem_ctrls.bytes_inst_read::cpu08.inst      3854912                       # Number of instructions bytes read from this memory
system.mem_ctrls.bytes_inst_read::cpu09.inst       807488                       # Number of instructions bytes read from this memory
system.mem_ctrls.bytes_inst_read::cpu10.inst       495616                       # Number of instructions bytes read from this memory
system.mem_ctrls.bytes_inst_read::cpu11.inst      1346624                       # Number of instructions bytes read from this memory
system.mem_ctrls.bytes_inst_read::cpu12.inst       621952                       # Number of instructions bytes read from this memory
system.mem_ctrls.bytes_inst_read::cpu13.inst       875776                       # Number of instructions bytes read from this memory
system.mem_ctrls.bytes_inst_read::cpu14.inst     12955840                       # Number of instructions bytes read from this memory
system.mem_ctrls.bytes_inst_read::cpu15.inst      1555136                       # Number of instructions bytes read from this memory
system.mem_ctrls.bytes_inst_read::total      37643712                       # Number of instructions bytes read from this memory
system.mem_ctrls.bytes_written::writebacks    158364800                       # Number of bytes written to this memory
system.mem_ctrls.bytes_written::total       158364800                       # Number of bytes written to this memory
system.mem_ctrls.num_reads::cpu00.dtb.walker        16609                       # Number of read requests responded to by this memory
system.mem_ctrls.num_reads::cpu00.itb.walker         2003                       # Number of read requests responded to by this memory
system.mem_ctrls.num_reads::cpu00.inst          94369                       # Number of read requests responded to by this memory
system.mem_ctrls.num_reads::cpu00.data        1926683                       # Number of read requests responded to by this memory
system.mem_ctrls.num_reads::cpu01.dtb.walker          184                       # Number of read requests responded to by this memory
system.mem_ctrls.num_reads::cpu01.itb.walker          167                       # Number of read requests responded to by this memory
system.mem_ctrls.num_reads::cpu01.inst          12431                       # Number of read requests responded to by this memory
system.mem_ctrls.num_reads::cpu01.data          29014                       # Number of read requests responded to by this memory
system.mem_ctrls.num_reads::cpu02.dtb.walker        11428                       # Number of read requests responded to by this memory
system.mem_ctrls.num_reads::cpu02.itb.walker         1693                       # Number of read requests responded to by this memory
system.mem_ctrls.num_reads::cpu02.inst          60946                       # Number of read requests responded to by this memory
system.mem_ctrls.num_reads::cpu02.data        1039982                       # Number of read requests responded to by this memory
system.mem_ctrls.num_reads::cpu03.dtb.walker          191                       # Number of read requests responded to by this memory
system.mem_ctrls.num_reads::cpu03.itb.walker          124                       # Number of read requests responded to by this memory
system.mem_ctrls.num_reads::cpu03.inst          18398                       # Number of read requests responded to by this memory
system.mem_ctrls.num_reads::cpu03.data          25647                       # Number of read requests responded to by this memory
system.mem_ctrls.num_reads::cpu04.dtb.walker          242                       # Number of read requests responded to by this memory
system.mem_ctrls.num_reads::cpu04.itb.walker          140                       # Number of read requests responded to by this memory
system.mem_ctrls.num_reads::cpu04.inst          12466                       # Number of read requests responded to by this memory
system.mem_ctrls.num_reads::cpu04.data          11148                       # Number of read requests responded to by this memory
system.mem_ctrls.num_reads::cpu05.dtb.walker           83                       # Number of read requests responded to by this memory
system.mem_ctrls.num_reads::cpu05.itb.walker           89                       # Number of read requests responded to by this memory
system.mem_ctrls.num_reads::cpu05.inst           8147                       # Number of read requests responded to by this memory
system.mem_ctrls.num_reads::cpu05.data           9925                       # Number of read requests responded to by this memory
system.mem_ctrls.num_reads::cpu06.dtb.walker          175                       # Number of read requests responded to by this memory
system.mem_ctrls.num_reads::cpu06.itb.walker          232                       # Number of read requests responded to by this memory
system.mem_ctrls.num_reads::cpu06.inst          18277                       # Number of read requests responded to by this memory
system.mem_ctrls.num_reads::cpu06.data          26642                       # Number of read requests responded to by this memory
system.mem_ctrls.num_reads::cpu07.dtb.walker          171                       # Number of read requests responded to by this memory
system.mem_ctrls.num_reads::cpu07.itb.walker          116                       # Number of read requests responded to by this memory
system.mem_ctrls.num_reads::cpu07.inst          11378                       # Number of read requests responded to by this memory
system.mem_ctrls.num_reads::cpu07.data          16281                       # Number of read requests responded to by this memory
system.mem_ctrls.num_reads::cpu08.dtb.walker        31353                       # Number of read requests responded to by this memory
system.mem_ctrls.num_reads::cpu08.itb.walker          990                       # Number of read requests responded to by this memory
system.mem_ctrls.num_reads::cpu08.inst          60233                       # Number of read requests responded to by this memory
system.mem_ctrls.num_reads::cpu08.data        1220435                       # Number of read requests responded to by this memory
system.mem_ctrls.num_reads::cpu09.dtb.walker          179                       # Number of read requests responded to by this memory
system.mem_ctrls.num_reads::cpu09.itb.walker           89                       # Number of read requests responded to by this memory
system.mem_ctrls.num_reads::cpu09.inst          12617                       # Number of read requests responded to by this memory
system.mem_ctrls.num_reads::cpu09.data          18598                       # Number of read requests responded to by this memory
system.mem_ctrls.num_reads::cpu10.dtb.walker          127                       # Number of read requests responded to by this memory
system.mem_ctrls.num_reads::cpu10.itb.walker           83                       # Number of read requests responded to by this memory
system.mem_ctrls.num_reads::cpu10.inst           7744                       # Number of read requests responded to by this memory
system.mem_ctrls.num_reads::cpu10.data          10509                       # Number of read requests responded to by this memory
system.mem_ctrls.num_reads::cpu11.dtb.walker          343                       # Number of read requests responded to by this memory
system.mem_ctrls.num_reads::cpu11.itb.walker          202                       # Number of read requests responded to by this memory
system.mem_ctrls.num_reads::cpu11.inst          21041                       # Number of read requests responded to by this memory
system.mem_ctrls.num_reads::cpu11.data          32281                       # Number of read requests responded to by this memory
system.mem_ctrls.num_reads::cpu12.dtb.walker          163                       # Number of read requests responded to by this memory
system.mem_ctrls.num_reads::cpu12.itb.walker           89                       # Number of read requests responded to by this memory
system.mem_ctrls.num_reads::cpu12.inst           9718                       # Number of read requests responded to by this memory
system.mem_ctrls.num_reads::cpu12.data          11336                       # Number of read requests responded to by this memory
system.mem_ctrls.num_reads::cpu13.dtb.walker          331                       # Number of read requests responded to by this memory
system.mem_ctrls.num_reads::cpu13.itb.walker          270                       # Number of read requests responded to by this memory
system.mem_ctrls.num_reads::cpu13.inst          13684                       # Number of read requests responded to by this memory
system.mem_ctrls.num_reads::cpu13.data          12946                       # Number of read requests responded to by this memory
system.mem_ctrls.num_reads::cpu14.dtb.walker        15284                       # Number of read requests responded to by this memory
system.mem_ctrls.num_reads::cpu14.itb.walker        12730                       # Number of read requests responded to by this memory
system.mem_ctrls.num_reads::cpu14.inst         202435                       # Number of read requests responded to by this memory
system.mem_ctrls.num_reads::cpu14.data         171158                       # Number of read requests responded to by this memory
system.mem_ctrls.num_reads::cpu15.dtb.walker          621                       # Number of read requests responded to by this memory
system.mem_ctrls.num_reads::cpu15.itb.walker          328                       # Number of read requests responded to by this memory
system.mem_ctrls.num_reads::cpu15.inst          24299                       # Number of read requests responded to by this memory
system.mem_ctrls.num_reads::cpu15.data          29528                       # Number of read requests responded to by this memory
system.mem_ctrls.num_reads::total             5277125                       # Number of read requests responded to by this memory
system.mem_ctrls.num_writes::writebacks       2474450                       # Number of write requests responded to by this memory
system.mem_ctrls.num_writes::total            2474450                       # Number of write requests responded to by this memory
system.mem_ctrls.bw_read::cpu00.dtb.walker          256                       # Total read bandwidth from this memory (bytes/s)
system.mem_ctrls.bw_read::cpu00.itb.walker           31                       # Total read bandwidth from this memory (bytes/s)
system.mem_ctrls.bw_read::cpu00.inst             1457                       # Total read bandwidth from this memory (bytes/s)
system.mem_ctrls.bw_read::cpu00.data            29752                       # Total read bandwidth from this memory (bytes/s)
system.mem_ctrls.bw_read::cpu01.dtb.walker            3                       # Total read bandwidth from this memory (bytes/s)
system.mem_ctrls.bw_read::cpu01.itb.walker            3                       # Total read bandwidth from this memory (bytes/s)
system.mem_ctrls.bw_read::cpu01.inst              192                       # Total read bandwidth from this memory (bytes/s)
system.mem_ctrls.bw_read::cpu01.data              448                       # Total read bandwidth from this memory (bytes/s)
system.mem_ctrls.bw_read::cpu02.dtb.walker          176                       # Total read bandwidth from this memory (bytes/s)
system.mem_ctrls.bw_read::cpu02.itb.walker           26                       # Total read bandwidth from this memory (bytes/s)
system.mem_ctrls.bw_read::cpu02.inst              941                       # Total read bandwidth from this memory (bytes/s)
system.mem_ctrls.bw_read::cpu02.data            16060                       # Total read bandwidth from this memory (bytes/s)
system.mem_ctrls.bw_read::cpu03.dtb.walker            3                       # Total read bandwidth from this memory (bytes/s)
system.mem_ctrls.bw_read::cpu03.itb.walker            2                       # Total read bandwidth from this memory (bytes/s)
system.mem_ctrls.bw_read::cpu03.inst              284                       # Total read bandwidth from this memory (bytes/s)
system.mem_ctrls.bw_read::cpu03.data              396                       # Total read bandwidth from this memory (bytes/s)
system.mem_ctrls.bw_read::cpu04.dtb.walker            4                       # Total read bandwidth from this memory (bytes/s)
system.mem_ctrls.bw_read::cpu04.itb.walker            2                       # Total read bandwidth from this memory (bytes/s)
system.mem_ctrls.bw_read::cpu04.inst              193                       # Total read bandwidth from this memory (bytes/s)
system.mem_ctrls.bw_read::cpu04.data              172                       # Total read bandwidth from this memory (bytes/s)
system.mem_ctrls.bw_read::cpu05.dtb.walker            1                       # Total read bandwidth from this memory (bytes/s)
system.mem_ctrls.bw_read::cpu05.itb.walker            1                       # Total read bandwidth from this memory (bytes/s)
system.mem_ctrls.bw_read::cpu05.inst              126                       # Total read bandwidth from this memory (bytes/s)
system.mem_ctrls.bw_read::cpu05.data              153                       # Total read bandwidth from this memory (bytes/s)
system.mem_ctrls.bw_read::cpu06.dtb.walker            3                       # Total read bandwidth from this memory (bytes/s)
system.mem_ctrls.bw_read::cpu06.itb.walker            4                       # Total read bandwidth from this memory (bytes/s)
system.mem_ctrls.bw_read::cpu06.inst              282                       # Total read bandwidth from this memory (bytes/s)
system.mem_ctrls.bw_read::cpu06.data              411                       # Total read bandwidth from this memory (bytes/s)
system.mem_ctrls.bw_read::cpu07.dtb.walker            3                       # Total read bandwidth from this memory (bytes/s)
system.mem_ctrls.bw_read::cpu07.itb.walker            2                       # Total read bandwidth from this memory (bytes/s)
system.mem_ctrls.bw_read::cpu07.inst              176                       # Total read bandwidth from this memory (bytes/s)
system.mem_ctrls.bw_read::cpu07.data              251                       # Total read bandwidth from this memory (bytes/s)
system.mem_ctrls.bw_read::cpu08.dtb.walker          484                       # Total read bandwidth from this memory (bytes/s)
system.mem_ctrls.bw_read::cpu08.itb.walker           15                       # Total read bandwidth from this memory (bytes/s)
system.mem_ctrls.bw_read::cpu08.inst              930                       # Total read bandwidth from this memory (bytes/s)
system.mem_ctrls.bw_read::cpu08.data            18846                       # Total read bandwidth from this memory (bytes/s)
system.mem_ctrls.bw_read::cpu09.dtb.walker            3                       # Total read bandwidth from this memory (bytes/s)
system.mem_ctrls.bw_read::cpu09.itb.walker            1                       # Total read bandwidth from this memory (bytes/s)
system.mem_ctrls.bw_read::cpu09.inst              195                       # Total read bandwidth from this memory (bytes/s)
system.mem_ctrls.bw_read::cpu09.data              287                       # Total read bandwidth from this memory (bytes/s)
system.mem_ctrls.bw_read::cpu10.dtb.walker            2                       # Total read bandwidth from this memory (bytes/s)
system.mem_ctrls.bw_read::cpu10.itb.walker            1                       # Total read bandwidth from this memory (bytes/s)
system.mem_ctrls.bw_read::cpu10.inst              120                       # Total read bandwidth from this memory (bytes/s)
system.mem_ctrls.bw_read::cpu10.data              162                       # Total read bandwidth from this memory (bytes/s)
system.mem_ctrls.bw_read::cpu11.dtb.walker            5                       # Total read bandwidth from this memory (bytes/s)
system.mem_ctrls.bw_read::cpu11.itb.walker            3                       # Total read bandwidth from this memory (bytes/s)
system.mem_ctrls.bw_read::cpu11.inst              325                       # Total read bandwidth from this memory (bytes/s)
system.mem_ctrls.bw_read::cpu11.data              498                       # Total read bandwidth from this memory (bytes/s)
system.mem_ctrls.bw_read::cpu12.dtb.walker            3                       # Total read bandwidth from this memory (bytes/s)
system.mem_ctrls.bw_read::cpu12.itb.walker            1                       # Total read bandwidth from this memory (bytes/s)
system.mem_ctrls.bw_read::cpu12.inst              150                       # Total read bandwidth from this memory (bytes/s)
system.mem_ctrls.bw_read::cpu12.data              175                       # Total read bandwidth from this memory (bytes/s)
system.mem_ctrls.bw_read::cpu13.dtb.walker            5                       # Total read bandwidth from this memory (bytes/s)
system.mem_ctrls.bw_read::cpu13.itb.walker            4                       # Total read bandwidth from this memory (bytes/s)
system.mem_ctrls.bw_read::cpu13.inst              211                       # Total read bandwidth from this memory (bytes/s)
system.mem_ctrls.bw_read::cpu13.data              200                       # Total read bandwidth from this memory (bytes/s)
system.mem_ctrls.bw_read::cpu14.dtb.walker          236                       # Total read bandwidth from this memory (bytes/s)
system.mem_ctrls.bw_read::cpu14.itb.walker          197                       # Total read bandwidth from this memory (bytes/s)
system.mem_ctrls.bw_read::cpu14.inst             3126                       # Total read bandwidth from this memory (bytes/s)
system.mem_ctrls.bw_read::cpu14.data             2643                       # Total read bandwidth from this memory (bytes/s)
system.mem_ctrls.bw_read::cpu15.dtb.walker           10                       # Total read bandwidth from this memory (bytes/s)
system.mem_ctrls.bw_read::cpu15.itb.walker            5                       # Total read bandwidth from this memory (bytes/s)
system.mem_ctrls.bw_read::cpu15.inst              375                       # Total read bandwidth from this memory (bytes/s)
system.mem_ctrls.bw_read::cpu15.data              456                       # Total read bandwidth from this memory (bytes/s)
system.mem_ctrls.bw_read::total                 81490                       # Total read bandwidth from this memory (bytes/s)
system.mem_ctrls.bw_inst_read::cpu00.inst         1457                       # Instruction read bandwidth from this memory (bytes/s)
system.mem_ctrls.bw_inst_read::cpu01.inst          192                       # Instruction read bandwidth from this memory (bytes/s)
system.mem_ctrls.bw_inst_read::cpu02.inst          941                       # Instruction read bandwidth from this memory (bytes/s)
system.mem_ctrls.bw_inst_read::cpu03.inst          284                       # Instruction read bandwidth from this memory (bytes/s)
system.mem_ctrls.bw_inst_read::cpu04.inst          193                       # Instruction read bandwidth from this memory (bytes/s)
system.mem_ctrls.bw_inst_read::cpu05.inst          126                       # Instruction read bandwidth from this memory (bytes/s)
system.mem_ctrls.bw_inst_read::cpu06.inst          282                       # Instruction read bandwidth from this memory (bytes/s)
system.mem_ctrls.bw_inst_read::cpu07.inst          176                       # Instruction read bandwidth from this memory (bytes/s)
system.mem_ctrls.bw_inst_read::cpu08.inst          930                       # Instruction read bandwidth from this memory (bytes/s)
system.mem_ctrls.bw_inst_read::cpu09.inst          195                       # Instruction read bandwidth from this memory (bytes/s)
system.mem_ctrls.bw_inst_read::cpu10.inst          120                       # Instruction read bandwidth from this memory (bytes/s)
system.mem_ctrls.bw_inst_read::cpu11.inst          325                       # Instruction read bandwidth from this memory (bytes/s)
system.mem_ctrls.bw_inst_read::cpu12.inst          150                       # Instruction read bandwidth from this memory (bytes/s)
system.mem_ctrls.bw_inst_read::cpu13.inst          211                       # Instruction read bandwidth from this memory (bytes/s)
system.mem_ctrls.bw_inst_read::cpu14.inst         3126                       # Instruction read bandwidth from this memory (bytes/s)
system.mem_ctrls.bw_inst_read::cpu15.inst          375                       # Instruction read bandwidth from this memory (bytes/s)
system.mem_ctrls.bw_inst_read::total             9083                       # Instruction read bandwidth from this memory (bytes/s)
system.mem_ctrls.bw_write::writebacks           38211                       # Write bandwidth from this memory (bytes/s)
system.mem_ctrls.bw_write::total                38211                       # Write bandwidth from this memory (bytes/s)
system.mem_ctrls.bw_total::writebacks           38211                       # Total bandwidth to/from this memory (bytes/s)
system.mem_ctrls.bw_total::cpu00.dtb.walker          256                       # Total bandwidth to/from this memory (bytes/s)
system.mem_ctrls.bw_total::cpu00.itb.walker           31                       # Total bandwidth to/from this memory (bytes/s)
system.mem_ctrls.bw_total::cpu00.inst            1457                       # Total bandwidth to/from this memory (bytes/s)
system.mem_ctrls.bw_total::cpu00.data           29752                       # Total bandwidth to/from this memory (bytes/s)
system.mem_ctrls.bw_total::cpu01.dtb.walker            3                       # Total bandwidth to/from this memory (bytes/s)
system.mem_ctrls.bw_total::cpu01.itb.walker            3                       # Total bandwidth to/from this memory (bytes/s)
system.mem_ctrls.bw_total::cpu01.inst             192                       # Total bandwidth to/from this memory (bytes/s)
system.mem_ctrls.bw_total::cpu01.data             448                       # Total bandwidth to/from this memory (bytes/s)
system.mem_ctrls.bw_total::cpu02.dtb.walker          176                       # Total bandwidth to/from this memory (bytes/s)
system.mem_ctrls.bw_total::cpu02.itb.walker           26                       # Total bandwidth to/from this memory (bytes/s)
system.mem_ctrls.bw_total::cpu02.inst             941                       # Total bandwidth to/from this memory (bytes/s)
system.mem_ctrls.bw_total::cpu02.data           16060                       # Total bandwidth to/from this memory (bytes/s)
system.mem_ctrls.bw_total::cpu03.dtb.walker            3                       # Total bandwidth to/from this memory (bytes/s)
system.mem_ctrls.bw_total::cpu03.itb.walker            2                       # Total bandwidth to/from this memory (bytes/s)
system.mem_ctrls.bw_total::cpu03.inst             284                       # Total bandwidth to/from this memory (bytes/s)
system.mem_ctrls.bw_total::cpu03.data             396                       # Total bandwidth to/from this memory (bytes/s)
system.mem_ctrls.bw_total::cpu04.dtb.walker            4                       # Total bandwidth to/from this memory (bytes/s)
system.mem_ctrls.bw_total::cpu04.itb.walker            2                       # Total bandwidth to/from this memory (bytes/s)
system.mem_ctrls.bw_total::cpu04.inst             193                       # Total bandwidth to/from this memory (bytes/s)
system.mem_ctrls.bw_total::cpu04.data             172                       # Total bandwidth to/from this memory (bytes/s)
system.mem_ctrls.bw_total::cpu05.dtb.walker            1                       # Total bandwidth to/from this memory (bytes/s)
system.mem_ctrls.bw_total::cpu05.itb.walker            1                       # Total bandwidth to/from this memory (bytes/s)
system.mem_ctrls.bw_total::cpu05.inst             126                       # Total bandwidth to/from this memory (bytes/s)
system.mem_ctrls.bw_total::cpu05.data             153                       # Total bandwidth to/from this memory (bytes/s)
system.mem_ctrls.bw_total::cpu06.dtb.walker            3                       # Total bandwidth to/from this memory (bytes/s)
system.mem_ctrls.bw_total::cpu06.itb.walker            4                       # Total bandwidth to/from this memory (bytes/s)
system.mem_ctrls.bw_total::cpu06.inst             282                       # Total bandwidth to/from this memory (bytes/s)
system.mem_ctrls.bw_total::cpu06.data             411                       # Total bandwidth to/from this memory (bytes/s)
system.mem_ctrls.bw_total::cpu07.dtb.walker            3                       # Total bandwidth to/from this memory (bytes/s)
system.mem_ctrls.bw_total::cpu07.itb.walker            2                       # Total bandwidth to/from this memory (bytes/s)
system.mem_ctrls.bw_total::cpu07.inst             176                       # Total bandwidth to/from this memory (bytes/s)
system.mem_ctrls.bw_total::cpu07.data             251                       # Total bandwidth to/from this memory (bytes/s)
system.mem_ctrls.bw_total::cpu08.dtb.walker          484                       # Total bandwidth to/from this memory (bytes/s)
system.mem_ctrls.bw_total::cpu08.itb.walker           15                       # Total bandwidth to/from this memory (bytes/s)
system.mem_ctrls.bw_total::cpu08.inst             930                       # Total bandwidth to/from this memory (bytes/s)
system.mem_ctrls.bw_total::cpu08.data           18846                       # Total bandwidth to/from this memory (bytes/s)
system.mem_ctrls.bw_total::cpu09.dtb.walker            3                       # Total bandwidth to/from this memory (bytes/s)
system.mem_ctrls.bw_total::cpu09.itb.walker            1                       # Total bandwidth to/from this memory (bytes/s)
system.mem_ctrls.bw_total::cpu09.inst             195                       # Total bandwidth to/from this memory (bytes/s)
system.mem_ctrls.bw_total::cpu09.data             287                       # Total bandwidth to/from this memory (bytes/s)
system.mem_ctrls.bw_total::cpu10.dtb.walker            2                       # Total bandwidth to/from this memory (bytes/s)
system.mem_ctrls.bw_total::cpu10.itb.walker            1                       # Total bandwidth to/from this memory (bytes/s)
system.mem_ctrls.bw_total::cpu10.inst             120                       # Total bandwidth to/from this memory (bytes/s)
system.mem_ctrls.bw_total::cpu10.data             162                       # Total bandwidth to/from this memory (bytes/s)
system.mem_ctrls.bw_total::cpu11.dtb.walker            5                       # Total bandwidth to/from this memory (bytes/s)
system.mem_ctrls.bw_total::cpu11.itb.walker            3                       # Total bandwidth to/from this memory (bytes/s)
system.mem_ctrls.bw_total::cpu11.inst             325                       # Total bandwidth to/from this memory (bytes/s)
system.mem_ctrls.bw_total::cpu11.data             498                       # Total bandwidth to/from this memory (bytes/s)
system.mem_ctrls.bw_total::cpu12.dtb.walker            3                       # Total bandwidth to/from this memory (bytes/s)
system.mem_ctrls.bw_total::cpu12.itb.walker            1                       # Total bandwidth to/from this memory (bytes/s)
system.mem_ctrls.bw_total::cpu12.inst             150                       # Total bandwidth to/from this memory (bytes/s)
system.mem_ctrls.bw_total::cpu12.data             175                       # Total bandwidth to/from this memory (bytes/s)
system.mem_ctrls.bw_total::cpu13.dtb.walker            5                       # Total bandwidth to/from this memory (bytes/s)
system.mem_ctrls.bw_total::cpu13.itb.walker            4                       # Total bandwidth to/from this memory (bytes/s)
system.mem_ctrls.bw_total::cpu13.inst             211                       # Total bandwidth to/from this memory (bytes/s)
system.mem_ctrls.bw_total::cpu13.data             200                       # Total bandwidth to/from this memory (bytes/s)
system.mem_ctrls.bw_total::cpu14.dtb.walker          236                       # Total bandwidth to/from this memory (bytes/s)
system.mem_ctrls.bw_total::cpu14.itb.walker          197                       # Total bandwidth to/from this memory (bytes/s)
system.mem_ctrls.bw_total::cpu14.inst            3126                       # Total bandwidth to/from this memory (bytes/s)
system.mem_ctrls.bw_total::cpu14.data            2643                       # Total bandwidth to/from this memory (bytes/s)
system.mem_ctrls.bw_total::cpu15.dtb.walker           10                       # Total bandwidth to/from this memory (bytes/s)
system.mem_ctrls.bw_total::cpu15.itb.walker            5                       # Total bandwidth to/from this memory (bytes/s)
system.mem_ctrls.bw_total::cpu15.inst             375                       # Total bandwidth to/from this memory (bytes/s)
system.mem_ctrls.bw_total::cpu15.data             456                       # Total bandwidth to/from this memory (bytes/s)
system.mem_ctrls.bw_total::total               119701                       # Total bandwidth to/from this memory (bytes/s)
system.mem_ctrls.readReqs                           0                       # Number of read requests accepted
system.mem_ctrls.writeReqs                          0                       # Number of write requests accepted
system.mem_ctrls.readBursts                         0                       # Number of DRAM read bursts, including those serviced by the write queue
system.mem_ctrls.writeBursts                        0                       # Number of DRAM write bursts, including those merged in the write queue
system.mem_ctrls.bytesReadDRAM                      0                       # Total number of bytes read from DRAM
system.mem_ctrls.bytesReadWrQ                       0                       # Total number of bytes read from write queue
system.mem_ctrls.bytesWritten                       0                       # Total number of bytes written to DRAM
system.mem_ctrls.bytesReadSys                       0                       # Total read bytes from the system interface side
system.mem_ctrls.bytesWrittenSys                    0                       # Total written bytes from the system interface side
system.mem_ctrls.servicedByWrQ                      0                       # Number of DRAM read bursts serviced by the write queue
system.mem_ctrls.mergedWrBursts                     0                       # Number of DRAM write bursts merged with an existing one
system.mem_ctrls.neitherReadNorWriteReqs            0                       # Number of requests that are neither read nor write
system.mem_ctrls.perBankRdBursts::0                 0                       # Per bank write bursts
system.mem_ctrls.perBankRdBursts::1                 0                       # Per bank write bursts
system.mem_ctrls.perBankRdBursts::2                 0                       # Per bank write bursts
system.mem_ctrls.perBankRdBursts::3                 0                       # Per bank write bursts
system.mem_ctrls.perBankRdBursts::4                 0                       # Per bank write bursts
system.mem_ctrls.perBankRdBursts::5                 0                       # Per bank write bursts
system.mem_ctrls.perBankRdBursts::6                 0                       # Per bank write bursts
system.mem_ctrls.perBankRdBursts::7                 0                       # Per bank write bursts
system.mem_ctrls.perBankRdBursts::8                 0                       # Per bank write bursts
system.mem_ctrls.perBankRdBursts::9                 0                       # Per bank write bursts
system.mem_ctrls.perBankRdBursts::10                0                       # Per bank write bursts
system.mem_ctrls.perBankRdBursts::11                0                       # Per bank write bursts
system.mem_ctrls.perBankRdBursts::12                0                       # Per bank write bursts
system.mem_ctrls.perBankRdBursts::13                0                       # Per bank write bursts
system.mem_ctrls.perBankRdBursts::14                0                       # Per bank write bursts
system.mem_ctrls.perBankRdBursts::15                0                       # Per bank write bursts
system.mem_ctrls.perBankRdBursts::16                0                       # Per bank write bursts
system.mem_ctrls.perBankRdBursts::17                0                       # Per bank write bursts
system.mem_ctrls.perBankRdBursts::18                0                       # Per bank write bursts
system.mem_ctrls.perBankRdBursts::19                0                       # Per bank write bursts
system.mem_ctrls.perBankRdBursts::20                0                       # Per bank write bursts
system.mem_ctrls.perBankRdBursts::21                0                       # Per bank write bursts
system.mem_ctrls.perBankRdBursts::22                0                       # Per bank write bursts
system.mem_ctrls.perBankRdBursts::23                0                       # Per bank write bursts
system.mem_ctrls.perBankRdBursts::24                0                       # Per bank write bursts
system.mem_ctrls.perBankRdBursts::25                0                       # Per bank write bursts
system.mem_ctrls.perBankRdBursts::26                0                       # Per bank write bursts
system.mem_ctrls.perBankRdBursts::27                0                       # Per bank write bursts
system.mem_ctrls.perBankRdBursts::28                0                       # Per bank write bursts
system.mem_ctrls.perBankRdBursts::29                0                       # Per bank write bursts
system.mem_ctrls.perBankRdBursts::30                0                       # Per bank write bursts
system.mem_ctrls.perBankRdBursts::31                0                       # Per bank write bursts
system.mem_ctrls.perBankWrBursts::0                 0                       # Per bank write bursts
system.mem_ctrls.perBankWrBursts::1                 0                       # Per bank write bursts
system.mem_ctrls.perBankWrBursts::2                 0                       # Per bank write bursts
system.mem_ctrls.perBankWrBursts::3                 0                       # Per bank write bursts
system.mem_ctrls.perBankWrBursts::4                 0                       # Per bank write bursts
system.mem_ctrls.perBankWrBursts::5                 0                       # Per bank write bursts
system.mem_ctrls.perBankWrBursts::6                 0                       # Per bank write bursts
system.mem_ctrls.perBankWrBursts::7                 0                       # Per bank write bursts
system.mem_ctrls.perBankWrBursts::8                 0                       # Per bank write bursts
system.mem_ctrls.perBankWrBursts::9                 0                       # Per bank write bursts
system.mem_ctrls.perBankWrBursts::10                0                       # Per bank write bursts
system.mem_ctrls.perBankWrBursts::11                0                       # Per bank write bursts
system.mem_ctrls.perBankWrBursts::12                0                       # Per bank write bursts
system.mem_ctrls.perBankWrBursts::13                0                       # Per bank write bursts
system.mem_ctrls.perBankWrBursts::14                0                       # Per bank write bursts
system.mem_ctrls.perBankWrBursts::15                0                       # Per bank write bursts
system.mem_ctrls.perBankWrBursts::16                0                       # Per bank write bursts
system.mem_ctrls.perBankWrBursts::17                0                       # Per bank write bursts
system.mem_ctrls.perBankWrBursts::18                0                       # Per bank write bursts
system.mem_ctrls.perBankWrBursts::19                0                       # Per bank write bursts
system.mem_ctrls.perBankWrBursts::20                0                       # Per bank write bursts
system.mem_ctrls.perBankWrBursts::21                0                       # Per bank write bursts
system.mem_ctrls.perBankWrBursts::22                0                       # Per bank write bursts
system.mem_ctrls.perBankWrBursts::23                0                       # Per bank write bursts
system.mem_ctrls.perBankWrBursts::24                0                       # Per bank write bursts
system.mem_ctrls.perBankWrBursts::25                0                       # Per bank write bursts
system.mem_ctrls.perBankWrBursts::26                0                       # Per bank write bursts
system.mem_ctrls.perBankWrBursts::27                0                       # Per bank write bursts
system.mem_ctrls.perBankWrBursts::28                0                       # Per bank write bursts
system.mem_ctrls.perBankWrBursts::29                0                       # Per bank write bursts
system.mem_ctrls.perBankWrBursts::30                0                       # Per bank write bursts
system.mem_ctrls.perBankWrBursts::31                0                       # Per bank write bursts
system.mem_ctrls.numRdRetry                         0                       # Number of times read queue was full causing retry
system.mem_ctrls.numWrRetry                         0                       # Number of times write queue was full causing retry
system.mem_ctrls.totGap                             0                       # Total gap between requests
system.mem_ctrls.readPktSize::0                     0                       # Read request sizes (log2)
system.mem_ctrls.readPktSize::1                     0                       # Read request sizes (log2)
system.mem_ctrls.readPktSize::2                     0                       # Read request sizes (log2)
system.mem_ctrls.readPktSize::3                     0                       # Read request sizes (log2)
system.mem_ctrls.readPktSize::4                     0                       # Read request sizes (log2)
system.mem_ctrls.readPktSize::5                     0                       # Read request sizes (log2)
system.mem_ctrls.readPktSize::6                     0                       # Read request sizes (log2)
system.mem_ctrls.writePktSize::0                    0                       # Write request sizes (log2)
system.mem_ctrls.writePktSize::1                    0                       # Write request sizes (log2)
system.mem_ctrls.writePktSize::2                    0                       # Write request sizes (log2)
system.mem_ctrls.writePktSize::3                    0                       # Write request sizes (log2)
system.mem_ctrls.writePktSize::4                    0                       # Write request sizes (log2)
system.mem_ctrls.writePktSize::5                    0                       # Write request sizes (log2)
system.mem_ctrls.writePktSize::6                    0                       # Write request sizes (log2)
system.mem_ctrls.rdQLenPdf::0                       0                       # What read queue length does an incoming req see
system.mem_ctrls.rdQLenPdf::1                       0                       # What read queue length does an incoming req see
system.mem_ctrls.rdQLenPdf::2                       0                       # What read queue length does an incoming req see
system.mem_ctrls.rdQLenPdf::3                       0                       # What read queue length does an incoming req see
system.mem_ctrls.rdQLenPdf::4                       0                       # What read queue length does an incoming req see
system.mem_ctrls.rdQLenPdf::5                       0                       # What read queue length does an incoming req see
system.mem_ctrls.rdQLenPdf::6                       0                       # What read queue length does an incoming req see
system.mem_ctrls.rdQLenPdf::7                       0                       # What read queue length does an incoming req see
system.mem_ctrls.rdQLenPdf::8                       0                       # What read queue length does an incoming req see
system.mem_ctrls.rdQLenPdf::9                       0                       # What read queue length does an incoming req see
system.mem_ctrls.rdQLenPdf::10                      0                       # What read queue length does an incoming req see
system.mem_ctrls.rdQLenPdf::11                      0                       # What read queue length does an incoming req see
system.mem_ctrls.rdQLenPdf::12                      0                       # What read queue length does an incoming req see
system.mem_ctrls.rdQLenPdf::13                      0                       # What read queue length does an incoming req see
system.mem_ctrls.rdQLenPdf::14                      0                       # What read queue length does an incoming req see
system.mem_ctrls.rdQLenPdf::15                      0                       # What read queue length does an incoming req see
system.mem_ctrls.rdQLenPdf::16                      0                       # What read queue length does an incoming req see
system.mem_ctrls.rdQLenPdf::17                      0                       # What read queue length does an incoming req see
system.mem_ctrls.rdQLenPdf::18                      0                       # What read queue length does an incoming req see
system.mem_ctrls.rdQLenPdf::19                      0                       # What read queue length does an incoming req see
system.mem_ctrls.rdQLenPdf::20                      0                       # What read queue length does an incoming req see
system.mem_ctrls.rdQLenPdf::21                      0                       # What read queue length does an incoming req see
system.mem_ctrls.rdQLenPdf::22                      0                       # What read queue length does an incoming req see
system.mem_ctrls.rdQLenPdf::23                      0                       # What read queue length does an incoming req see
system.mem_ctrls.rdQLenPdf::24                      0                       # What read queue length does an incoming req see
system.mem_ctrls.rdQLenPdf::25                      0                       # What read queue length does an incoming req see
system.mem_ctrls.rdQLenPdf::26                      0                       # What read queue length does an incoming req see
system.mem_ctrls.rdQLenPdf::27                      0                       # What read queue length does an incoming req see
system.mem_ctrls.rdQLenPdf::28                      0                       # What read queue length does an incoming req see
system.mem_ctrls.rdQLenPdf::29                      0                       # What read queue length does an incoming req see
system.mem_ctrls.rdQLenPdf::30                      0                       # What read queue length does an incoming req see
system.mem_ctrls.rdQLenPdf::31                      0                       # What read queue length does an incoming req see
system.mem_ctrls.rdQLenPdf::32                      0                       # What read queue length does an incoming req see
system.mem_ctrls.rdQLenPdf::33                      0                       # What read queue length does an incoming req see
system.mem_ctrls.rdQLenPdf::34                      0                       # What read queue length does an incoming req see
system.mem_ctrls.rdQLenPdf::35                      0                       # What read queue length does an incoming req see
system.mem_ctrls.rdQLenPdf::36                      0                       # What read queue length does an incoming req see
system.mem_ctrls.rdQLenPdf::37                      0                       # What read queue length does an incoming req see
system.mem_ctrls.rdQLenPdf::38                      0                       # What read queue length does an incoming req see
system.mem_ctrls.rdQLenPdf::39                      0                       # What read queue length does an incoming req see
system.mem_ctrls.rdQLenPdf::40                      0                       # What read queue length does an incoming req see
system.mem_ctrls.rdQLenPdf::41                      0                       # What read queue length does an incoming req see
system.mem_ctrls.rdQLenPdf::42                      0                       # What read queue length does an incoming req see
system.mem_ctrls.rdQLenPdf::43                      0                       # What read queue length does an incoming req see
system.mem_ctrls.rdQLenPdf::44                      0                       # What read queue length does an incoming req see
system.mem_ctrls.rdQLenPdf::45                      0                       # What read queue length does an incoming req see
system.mem_ctrls.rdQLenPdf::46                      0                       # What read queue length does an incoming req see
system.mem_ctrls.rdQLenPdf::47                      0                       # What read queue length does an incoming req see
system.mem_ctrls.rdQLenPdf::48                      0                       # What read queue length does an incoming req see
system.mem_ctrls.rdQLenPdf::49                      0                       # What read queue length does an incoming req see
system.mem_ctrls.rdQLenPdf::50                      0                       # What read queue length does an incoming req see
system.mem_ctrls.rdQLenPdf::51                      0                       # What read queue length does an incoming req see
system.mem_ctrls.rdQLenPdf::52                      0                       # What read queue length does an incoming req see
system.mem_ctrls.rdQLenPdf::53                      0                       # What read queue length does an incoming req see
system.mem_ctrls.rdQLenPdf::54                      0                       # What read queue length does an incoming req see
system.mem_ctrls.rdQLenPdf::55                      0                       # What read queue length does an incoming req see
system.mem_ctrls.rdQLenPdf::56                      0                       # What read queue length does an incoming req see
system.mem_ctrls.rdQLenPdf::57                      0                       # What read queue length does an incoming req see
system.mem_ctrls.rdQLenPdf::58                      0                       # What read queue length does an incoming req see
system.mem_ctrls.rdQLenPdf::59                      0                       # What read queue length does an incoming req see
system.mem_ctrls.rdQLenPdf::60                      0                       # What read queue length does an incoming req see
system.mem_ctrls.rdQLenPdf::61                      0                       # What read queue length does an incoming req see
system.mem_ctrls.rdQLenPdf::62                      0                       # What read queue length does an incoming req see
system.mem_ctrls.rdQLenPdf::63                      0                       # What read queue length does an incoming req see
system.mem_ctrls.wrQLenPdf::0                       0                       # What write queue length does an incoming req see
system.mem_ctrls.wrQLenPdf::1                       0                       # What write queue length does an incoming req see
system.mem_ctrls.wrQLenPdf::2                       0                       # What write queue length does an incoming req see
system.mem_ctrls.wrQLenPdf::3                       0                       # What write queue length does an incoming req see
system.mem_ctrls.wrQLenPdf::4                       0                       # What write queue length does an incoming req see
system.mem_ctrls.wrQLenPdf::5                       0                       # What write queue length does an incoming req see
system.mem_ctrls.wrQLenPdf::6                       0                       # What write queue length does an incoming req see
system.mem_ctrls.wrQLenPdf::7                       0                       # What write queue length does an incoming req see
system.mem_ctrls.wrQLenPdf::8                       0                       # What write queue length does an incoming req see
system.mem_ctrls.wrQLenPdf::9                       0                       # What write queue length does an incoming req see
system.mem_ctrls.wrQLenPdf::10                      0                       # What write queue length does an incoming req see
system.mem_ctrls.wrQLenPdf::11                      0                       # What write queue length does an incoming req see
system.mem_ctrls.wrQLenPdf::12                      0                       # What write queue length does an incoming req see
system.mem_ctrls.wrQLenPdf::13                      0                       # What write queue length does an incoming req see
system.mem_ctrls.wrQLenPdf::14                      0                       # What write queue length does an incoming req see
system.mem_ctrls.wrQLenPdf::15                      0                       # What write queue length does an incoming req see
system.mem_ctrls.wrQLenPdf::16                      0                       # What write queue length does an incoming req see
system.mem_ctrls.wrQLenPdf::17                      0                       # What write queue length does an incoming req see
system.mem_ctrls.wrQLenPdf::18                      0                       # What write queue length does an incoming req see
system.mem_ctrls.wrQLenPdf::19                      0                       # What write queue length does an incoming req see
system.mem_ctrls.wrQLenPdf::20                      0                       # What write queue length does an incoming req see
system.mem_ctrls.wrQLenPdf::21                      0                       # What write queue length does an incoming req see
system.mem_ctrls.wrQLenPdf::22                      0                       # What write queue length does an incoming req see
system.mem_ctrls.wrQLenPdf::23                      0                       # What write queue length does an incoming req see
system.mem_ctrls.wrQLenPdf::24                      0                       # What write queue length does an incoming req see
system.mem_ctrls.wrQLenPdf::25                      0                       # What write queue length does an incoming req see
system.mem_ctrls.wrQLenPdf::26                      0                       # What write queue length does an incoming req see
system.mem_ctrls.wrQLenPdf::27                      0                       # What write queue length does an incoming req see
system.mem_ctrls.wrQLenPdf::28                      0                       # What write queue length does an incoming req see
system.mem_ctrls.wrQLenPdf::29                      0                       # What write queue length does an incoming req see
system.mem_ctrls.wrQLenPdf::30                      0                       # What write queue length does an incoming req see
system.mem_ctrls.wrQLenPdf::31                      0                       # What write queue length does an incoming req see
system.mem_ctrls.wrQLenPdf::32                      0                       # What write queue length does an incoming req see
system.mem_ctrls.wrQLenPdf::33                      0                       # What write queue length does an incoming req see
system.mem_ctrls.wrQLenPdf::34                      0                       # What write queue length does an incoming req see
system.mem_ctrls.wrQLenPdf::35                      0                       # What write queue length does an incoming req see
system.mem_ctrls.wrQLenPdf::36                      0                       # What write queue length does an incoming req see
system.mem_ctrls.wrQLenPdf::37                      0                       # What write queue length does an incoming req see
system.mem_ctrls.wrQLenPdf::38                      0                       # What write queue length does an incoming req see
system.mem_ctrls.wrQLenPdf::39                      0                       # What write queue length does an incoming req see
system.mem_ctrls.wrQLenPdf::40                      0                       # What write queue length does an incoming req see
system.mem_ctrls.wrQLenPdf::41                      0                       # What write queue length does an incoming req see
system.mem_ctrls.wrQLenPdf::42                      0                       # What write queue length does an incoming req see
system.mem_ctrls.wrQLenPdf::43                      0                       # What write queue length does an incoming req see
system.mem_ctrls.wrQLenPdf::44                      0                       # What write queue length does an incoming req see
system.mem_ctrls.wrQLenPdf::45                      0                       # What write queue length does an incoming req see
system.mem_ctrls.wrQLenPdf::46                      0                       # What write queue length does an incoming req see
system.mem_ctrls.wrQLenPdf::47                      0                       # What write queue length does an incoming req see
system.mem_ctrls.wrQLenPdf::48                      0                       # What write queue length does an incoming req see
system.mem_ctrls.wrQLenPdf::49                      0                       # What write queue length does an incoming req see
system.mem_ctrls.wrQLenPdf::50                      0                       # What write queue length does an incoming req see
system.mem_ctrls.wrQLenPdf::51                      0                       # What write queue length does an incoming req see
system.mem_ctrls.wrQLenPdf::52                      0                       # What write queue length does an incoming req see
system.mem_ctrls.wrQLenPdf::53                      0                       # What write queue length does an incoming req see
system.mem_ctrls.wrQLenPdf::54                      0                       # What write queue length does an incoming req see
system.mem_ctrls.wrQLenPdf::55                      0                       # What write queue length does an incoming req see
system.mem_ctrls.wrQLenPdf::56                      0                       # What write queue length does an incoming req see
system.mem_ctrls.wrQLenPdf::57                      0                       # What write queue length does an incoming req see
system.mem_ctrls.wrQLenPdf::58                      0                       # What write queue length does an incoming req see
system.mem_ctrls.wrQLenPdf::59                      0                       # What write queue length does an incoming req see
system.mem_ctrls.wrQLenPdf::60                      0                       # What write queue length does an incoming req see
system.mem_ctrls.wrQLenPdf::61                      0                       # What write queue length does an incoming req see
system.mem_ctrls.wrQLenPdf::62                      0                       # What write queue length does an incoming req see
system.mem_ctrls.wrQLenPdf::63                      0                       # What write queue length does an incoming req see
system.mem_ctrls.wrQLenPdf::64                      0                       # What write queue length does an incoming req see
system.mem_ctrls.wrQLenPdf::65                      0                       # What write queue length does an incoming req see
system.mem_ctrls.wrQLenPdf::66                      0                       # What write queue length does an incoming req see
system.mem_ctrls.wrQLenPdf::67                      0                       # What write queue length does an incoming req see
system.mem_ctrls.wrQLenPdf::68                      0                       # What write queue length does an incoming req see
system.mem_ctrls.wrQLenPdf::69                      0                       # What write queue length does an incoming req see
system.mem_ctrls.wrQLenPdf::70                      0                       # What write queue length does an incoming req see
system.mem_ctrls.wrQLenPdf::71                      0                       # What write queue length does an incoming req see
system.mem_ctrls.wrQLenPdf::72                      0                       # What write queue length does an incoming req see
system.mem_ctrls.wrQLenPdf::73                      0                       # What write queue length does an incoming req see
system.mem_ctrls.wrQLenPdf::74                      0                       # What write queue length does an incoming req see
system.mem_ctrls.wrQLenPdf::75                      0                       # What write queue length does an incoming req see
system.mem_ctrls.wrQLenPdf::76                      0                       # What write queue length does an incoming req see
system.mem_ctrls.wrQLenPdf::77                      0                       # What write queue length does an incoming req see
system.mem_ctrls.wrQLenPdf::78                      0                       # What write queue length does an incoming req see
system.mem_ctrls.wrQLenPdf::79                      0                       # What write queue length does an incoming req see
system.mem_ctrls.wrQLenPdf::80                      0                       # What write queue length does an incoming req see
system.mem_ctrls.wrQLenPdf::81                      0                       # What write queue length does an incoming req see
system.mem_ctrls.wrQLenPdf::82                      0                       # What write queue length does an incoming req see
system.mem_ctrls.wrQLenPdf::83                      0                       # What write queue length does an incoming req see
system.mem_ctrls.wrQLenPdf::84                      0                       # What write queue length does an incoming req see
system.mem_ctrls.wrQLenPdf::85                      0                       # What write queue length does an incoming req see
system.mem_ctrls.wrQLenPdf::86                      0                       # What write queue length does an incoming req see
system.mem_ctrls.wrQLenPdf::87                      0                       # What write queue length does an incoming req see
system.mem_ctrls.wrQLenPdf::88                      0                       # What write queue length does an incoming req see
system.mem_ctrls.wrQLenPdf::89                      0                       # What write queue length does an incoming req see
system.mem_ctrls.wrQLenPdf::90                      0                       # What write queue length does an incoming req see
system.mem_ctrls.wrQLenPdf::91                      0                       # What write queue length does an incoming req see
system.mem_ctrls.wrQLenPdf::92                      0                       # What write queue length does an incoming req see
system.mem_ctrls.wrQLenPdf::93                      0                       # What write queue length does an incoming req see
system.mem_ctrls.wrQLenPdf::94                      0                       # What write queue length does an incoming req see
system.mem_ctrls.wrQLenPdf::95                      0                       # What write queue length does an incoming req see
system.mem_ctrls.wrQLenPdf::96                      0                       # What write queue length does an incoming req see
system.mem_ctrls.wrQLenPdf::97                      0                       # What write queue length does an incoming req see
system.mem_ctrls.wrQLenPdf::98                      0                       # What write queue length does an incoming req see
system.mem_ctrls.wrQLenPdf::99                      0                       # What write queue length does an incoming req see
system.mem_ctrls.wrQLenPdf::100                     0                       # What write queue length does an incoming req see
system.mem_ctrls.wrQLenPdf::101                     0                       # What write queue length does an incoming req see
system.mem_ctrls.wrQLenPdf::102                     0                       # What write queue length does an incoming req see
system.mem_ctrls.wrQLenPdf::103                     0                       # What write queue length does an incoming req see
system.mem_ctrls.wrQLenPdf::104                     0                       # What write queue length does an incoming req see
system.mem_ctrls.wrQLenPdf::105                     0                       # What write queue length does an incoming req see
system.mem_ctrls.wrQLenPdf::106                     0                       # What write queue length does an incoming req see
system.mem_ctrls.wrQLenPdf::107                     0                       # What write queue length does an incoming req see
system.mem_ctrls.wrQLenPdf::108                     0                       # What write queue length does an incoming req see
system.mem_ctrls.wrQLenPdf::109                     0                       # What write queue length does an incoming req see
system.mem_ctrls.wrQLenPdf::110                     0                       # What write queue length does an incoming req see
system.mem_ctrls.wrQLenPdf::111                     0                       # What write queue length does an incoming req see
system.mem_ctrls.wrQLenPdf::112                     0                       # What write queue length does an incoming req see
system.mem_ctrls.wrQLenPdf::113                     0                       # What write queue length does an incoming req see
system.mem_ctrls.wrQLenPdf::114                     0                       # What write queue length does an incoming req see
system.mem_ctrls.wrQLenPdf::115                     0                       # What write queue length does an incoming req see
system.mem_ctrls.wrQLenPdf::116                     0                       # What write queue length does an incoming req see
system.mem_ctrls.wrQLenPdf::117                     0                       # What write queue length does an incoming req see
system.mem_ctrls.wrQLenPdf::118                     0                       # What write queue length does an incoming req see
system.mem_ctrls.wrQLenPdf::119                     0                       # What write queue length does an incoming req see
system.mem_ctrls.wrQLenPdf::120                     0                       # What write queue length does an incoming req see
system.mem_ctrls.wrQLenPdf::121                     0                       # What write queue length does an incoming req see
system.mem_ctrls.wrQLenPdf::122                     0                       # What write queue length does an incoming req see
system.mem_ctrls.wrQLenPdf::123                     0                       # What write queue length does an incoming req see
system.mem_ctrls.wrQLenPdf::124                     0                       # What write queue length does an incoming req see
system.mem_ctrls.wrQLenPdf::125                     0                       # What write queue length does an incoming req see
system.mem_ctrls.wrQLenPdf::126                     0                       # What write queue length does an incoming req see
system.mem_ctrls.wrQLenPdf::127                     0                       # What write queue length does an incoming req see
system.mem_ctrls.totQLat                            0                       # Total ticks spent queuing
system.mem_ctrls.totMemAccLat                       0                       # Total ticks spent from burst creation until serviced by the DRAM
system.mem_ctrls.totBusLat                          0                       # Total ticks spent in databus transfers
system.mem_ctrls.avgQLat                          nan                       # Average queueing delay per DRAM burst
system.mem_ctrls.avgBusLat                        nan                       # Average bus latency per DRAM burst
system.mem_ctrls.avgMemAccLat                     nan                       # Average memory access latency per DRAM burst
system.mem_ctrls.avgRdBW                         0.00                       # Average DRAM read bandwidth in MiByte/s
system.mem_ctrls.avgWrBW                         0.00                       # Average achieved write bandwidth in MiByte/s
system.mem_ctrls.avgRdBWSys                      0.00                       # Average system read bandwidth in MiByte/s
system.mem_ctrls.avgWrBWSys                      0.00                       # Average system write bandwidth in MiByte/s
system.mem_ctrls.peakBW                      19207.00                       # Theoretical peak bandwidth in MiByte/s
system.mem_ctrls.busUtil                         0.00                       # Data bus utilization in percentage
system.mem_ctrls.busUtilRead                     0.00                       # Data bus utilization in percentage for reads
system.mem_ctrls.busUtilWrite                    0.00                       # Data bus utilization in percentage for writes
system.mem_ctrls.avgRdQLen                       0.00                       # Average read queue length when enqueuing
system.mem_ctrls.avgWrQLen                       0.00                       # Average write queue length when enqueuing
system.mem_ctrls.readRowHits                        0                       # Number of row buffer hits during reads
system.mem_ctrls.writeRowHits                       0                       # Number of row buffer hits during writes
system.mem_ctrls.readRowHitRate                   nan                       # Row buffer hit rate for reads
system.mem_ctrls.writeRowHitRate                  nan                       # Row buffer hit rate for writes
system.mem_ctrls.avgGap                           nan                       # Average gap between requests
system.mem_ctrls.pageHitRate                      nan                       # Row buffer hit rate, read and write combined
system.mem_ctrls_0.actEnergy                        0                       # Energy for activate commands per rank (pJ)
system.mem_ctrls_0.preEnergy                        0                       # Energy for precharge commands per rank (pJ)
system.mem_ctrls_0.readEnergy                       0                       # Energy for read commands per rank (pJ)
system.mem_ctrls_0.writeEnergy                      0                       # Energy for write commands per rank (pJ)
system.mem_ctrls_0.refreshEnergy                    0                       # Energy for refresh commands per rank (pJ)
system.mem_ctrls_0.actBackEnergy                    0                       # Energy for active background per rank (pJ)
system.mem_ctrls_0.preBackEnergy         676380776415507.875000                       # Energy for precharge background per rank (pJ)
system.mem_ctrls_0.actPowerDownEnergy               0                       # Energy for active power-down per rank (pJ)
system.mem_ctrls_0.prePowerDownEnergy               0                       # Energy for precharge power-down per rank (pJ)
system.mem_ctrls_0.selfRefreshEnergy                0                       # Energy for self refresh per rank (pJ)
system.mem_ctrls_0.totalEnergy           676380776415507.875000                       # Total energy per rank (pJ)
system.mem_ctrls_0.averagePower            163.200000                       # Core power per rank (mW)
system.mem_ctrls_0.totalIdleTime                    0                       # Total Idle time Per DRAM Rank
system.mem_ctrls_0.memoryStateTime::IDLE 10891613106347000                       # Time in different power states
system.mem_ctrls_0.memoryStateTime::REF             0                       # Time in different power states
system.mem_ctrls_0.memoryStateTime::SREF            0                       # Time in different power states
system.mem_ctrls_0.memoryStateTime::PRE_PDN            0                       # Time in different power states
system.mem_ctrls_0.memoryStateTime::ACT             0                       # Time in different power states
system.mem_ctrls_0.memoryStateTime::ACT_PDN            0                       # Time in different power states
system.mem_ctrls_1.actEnergy                        0                       # Energy for activate commands per rank (pJ)
system.mem_ctrls_1.preEnergy                        0                       # Energy for precharge commands per rank (pJ)
system.mem_ctrls_1.readEnergy                       0                       # Energy for read commands per rank (pJ)
system.mem_ctrls_1.writeEnergy                      0                       # Energy for write commands per rank (pJ)
system.mem_ctrls_1.refreshEnergy                    0                       # Energy for refresh commands per rank (pJ)
system.mem_ctrls_1.actBackEnergy                    0                       # Energy for active background per rank (pJ)
system.mem_ctrls_1.preBackEnergy         676380776415507.875000                       # Energy for precharge background per rank (pJ)
system.mem_ctrls_1.actPowerDownEnergy               0                       # Energy for active power-down per rank (pJ)
system.mem_ctrls_1.prePowerDownEnergy               0                       # Energy for precharge power-down per rank (pJ)
system.mem_ctrls_1.selfRefreshEnergy                0                       # Energy for self refresh per rank (pJ)
[...]
system.tol2bus12.pkt_size_system.cpu12.dcache.mem_side::system.l212.cpu_side      4046197                       # Cumulative packet size per connected master and slave (bytes)
system.tol2bus12.pkt_size_system.cpu12.itb.walker.dma::system.l212.cpu_side        93712                       # Cumulative packet size per connected master and slave (bytes)
system.tol2bus12.pkt_size_system.cpu12.dtb.walker.dma::system.l212.cpu_side        57032                       # Cumulative packet size per connected master and slave (bytes)
system.tol2bus12.pkt_size::total             10782157                       # Cumulative packet size per connected master and slave (bytes)
system.tol2bus12.snoops                        345309                       # Total snoops (count)
system.tol2bus12.snoopTraffic                  205376                       # Total snoop traffic (bytes)
system.tol2bus12.snoop_fanout::samples         464468                       # Request fanout histogram
system.tol2bus12.snoop_fanout::mean          0.158904                       # Request fanout histogram
system.tol2bus12.snoop_fanout::stdev         0.365587                       # Request fanout histogram
system.tol2bus12.snoop_fanout::underflows            0      0.00%      0.00% # Request fanout histogram
system.tol2bus12.snoop_fanout::0               390662     84.11%     84.11% # Request fanout histogram
system.tol2bus12.snoop_fanout::1                73806     15.89%    100.00% # Request fanout histogram
system.tol2bus12.snoop_fanout::2                    0      0.00%    100.00% # Request fanout histogram
system.tol2bus12.snoop_fanout::overflows            0      0.00%    100.00% # Request fanout histogram
system.tol2bus12.snoop_fanout::min_value            0                       # Request fanout histogram
system.tol2bus12.snoop_fanout::max_value            1                       # Request fanout histogram
system.tol2bus12.snoop_fanout::total           464468                       # Request fanout histogram
system.tol2bus12.directResponses                    0                       # auxiliar stat for checking how reasonable wireless model is
system.tol2bus13.snoop_filter.tot_requests       588877                       # Total number of requests made to the snoop filter.
system.tol2bus13.snoop_filter.hit_single_requests       295190                       # Number of requests hitting in the snoop filter with a single holder of the requested data.
system.tol2bus13.snoop_filter.hit_multi_requests            0                       # Number of requests hitting in the snoop filter with multiple (>1) holders of the requested data.
system.tol2bus13.snoop_filter.tot_snoops        74895                       # Total number of snoops made to the snoop filter.
system.tol2bus13.snoop_filter.hit_single_snoops        74895                       # Number of snoops hitting in the snoop filter with a single holder of the requested data.
system.tol2bus13.snoop_filter.hit_multi_snoops            0                       # Number of snoops hitting in the snoop filter with multiple (>1) holders of the requested data.
system.tol2bus13.pwrStateResidencyTicks::UNDEFINED 10891613106347000                       # Cumulative time (in ticks) in various power states
system.tol2bus13.trans_dist::ReadReq            94526                       # Transaction distribution
system.tol2bus13.trans_dist::ReadResp          367284                       # Transaction distribution
system.tol2bus13.trans_dist::WriteReq             198                       # Transaction distribution
system.tol2bus13.trans_dist::WriteResp            198                       # Transaction distribution
system.tol2bus13.trans_dist::WritebackDirty        40403                       # Transaction distribution
system.tol2bus13.trans_dist::WritebackClean       201978                       # Transaction distribution
system.tol2bus13.trans_dist::CleanEvict         46616                       # Transaction distribution
system.tol2bus13.trans_dist::UpgradeReq          2648                       # Transaction distribution
system.tol2bus13.trans_dist::SCUpgradeReq         2210                       # Transaction distribution
system.tol2bus13.trans_dist::UpgradeResp         4858                       # Transaction distribution
system.tol2bus13.trans_dist::ReadExReq          15499                       # Transaction distribution
system.tol2bus13.trans_dist::ReadExResp         15499                       # Transaction distribution
system.tol2bus13.trans_dist::ReadCleanReq       202490                       # Transaction distribution
system.tol2bus13.trans_dist::ReadSharedReq        70268                       # Transaction distribution
system.tol2bus13.trans_dist::InvalidateReq         5432                       # Transaction distribution
system.tol2bus13.trans_dist::InvalidateResp         5432                       # Transaction distribution
system.tol2bus13.pkt_count_system.cpu13.icache.mem_side::system.l213.cpu_side       606958                       # Packet count per connected master and slave (bytes)
system.tol2bus13.pkt_count_system.cpu13.dcache.mem_side::system.l213.cpu_side       280347                       # Packet count per connected master and slave (bytes)
system.tol2bus13.pkt_count_system.cpu13.itb.walker.dma::system.l213.cpu_side       123194                       # Packet count per connected master and slave (bytes)
system.tol2bus13.pkt_count_system.cpu13.dtb.walker.dma::system.l213.cpu_side        65040                       # Packet count per connected master and slave (bytes)
system.tol2bus13.pkt_count::total             1075539                       # Packet count per connected master and slave (bytes)
system.tol2bus13.pkt_size_system.cpu13.icache.mem_side::system.l213.cpu_side     25885952                       # Cumulative packet size per connected master and slave (bytes)
system.tol2bus13.pkt_size_system.cpu13.dcache.mem_side::system.l213.cpu_side      8077308                       # Cumulative packet size per connected master and slave (bytes)
system.tol2bus13.pkt_size_system.cpu13.itb.walker.dma::system.l213.cpu_side       492776                       # Cumulative packet size per connected master and slave (bytes)
system.tol2bus13.pkt_size_system.cpu13.dtb.walker.dma::system.l213.cpu_side       260160                       # Cumulative packet size per connected master and slave (bytes)
system.tol2bus13.pkt_size::total             34716196                       # Cumulative packet size per connected master and slave (bytes)
system.tol2bus13.snoops                        387056                       # Total snoops (count)
system.tol2bus13.snoopTraffic                  239104                       # Total snoop traffic (bytes)
system.tol2bus13.snoop_fanout::samples         773589                       # Request fanout histogram
system.tol2bus13.snoop_fanout::mean          0.098538                       # Request fanout histogram
system.tol2bus13.snoop_fanout::stdev         0.298041                       # Request fanout histogram
system.tol2bus13.snoop_fanout::underflows            0      0.00%      0.00% # Request fanout histogram
system.tol2bus13.snoop_fanout::0               697361     90.15%     90.15% # Request fanout histogram
system.tol2bus13.snoop_fanout::1                76228      9.85%    100.00% # Request fanout histogram
system.tol2bus13.snoop_fanout::2                    0      0.00%    100.00% # Request fanout histogram
system.tol2bus13.snoop_fanout::overflows            0      0.00%    100.00% # Request fanout histogram
system.tol2bus13.snoop_fanout::min_value            0                       # Request fanout histogram
system.tol2bus13.snoop_fanout::max_value            1                       # Request fanout histogram
system.tol2bus13.snoop_fanout::total           773589                       # Request fanout histogram
system.tol2bus13.directResponses                    0                       # auxiliar stat for checking how reasonable wireless model is
system.tol2bus14.snoop_filter.tot_requests     24866702                       # Total number of requests made to the snoop filter.
system.tol2bus14.snoop_filter.hit_single_requests     12437595                       # Number of requests hitting in the snoop filter with a single holder of the requested data.
system.tol2bus14.snoop_filter.hit_multi_requests            0                       # Number of requests hitting in the snoop filter with multiple (>1) holders of the requested data.
system.tol2bus14.snoop_filter.tot_snoops       245045                       # Total number of snoops made to the snoop filter.
system.tol2bus14.snoop_filter.hit_single_snoops       245045                       # Number of snoops hitting in the snoop filter with a single holder of the requested data.
system.tol2bus14.snoop_filter.hit_multi_snoops            0                       # Number of snoops hitting in the snoop filter with multiple (>1) holders of the requested data.
system.tol2bus14.pwrStateResidencyTicks::UNDEFINED 10891613106347000                       # Cumulative time (in ticks) in various power states
system.tol2bus14.trans_dist::ReadReq          3402423                       # Transaction distribution
system.tol2bus14.trans_dist::ReadResp        15225781                       # Transaction distribution
system.tol2bus14.trans_dist::WriteReq            2583                       # Transaction distribution
system.tol2bus14.trans_dist::WriteResp           2583                       # Transaction distribution
system.tol2bus14.trans_dist::WritebackDirty      1412407                       # Transaction distribution
system.tol2bus14.trans_dist::WritebackClean      9718884                       # Transaction distribution
system.tol2bus14.trans_dist::CleanEvict       1256187                       # Transaction distribution
system.tol2bus14.trans_dist::UpgradeReq         28372                       # Transaction distribution
system.tol2bus14.trans_dist::SCUpgradeReq        20875                       # Transaction distribution
system.tol2bus14.trans_dist::UpgradeResp        49247                       # Transaction distribution
system.tol2bus14.trans_dist::ReadExReq         466858                       # Transaction distribution
system.tol2bus14.trans_dist::ReadExResp        466858                       # Transaction distribution
system.tol2bus14.trans_dist::ReadCleanReq      9719396                       # Transaction distribution
system.tol2bus14.trans_dist::ReadSharedReq      2103962                       # Transaction distribution
system.tol2bus14.trans_dist::InvalidateReq       139761                       # Transaction distribution
system.tol2bus14.trans_dist::InvalidateResp       139761                       # Transaction distribution
system.tol2bus14.pkt_count_system.cpu14.icache.mem_side::system.l214.cpu_side     29157676                       # Packet count per connected master and slave (bytes)
system.tol2bus14.pkt_count_system.cpu14.dcache.mem_side::system.l214.cpu_side      8198154                       # Packet count per connected master and slave (bytes)
system.tol2bus14.pkt_count_system.cpu14.itb.walker.dma::system.l214.cpu_side      5852194                       # Packet count per connected master and slave (bytes)
system.tol2bus14.pkt_count_system.cpu14.dtb.walker.dma::system.l214.cpu_side       947914                       # Packet count per connected master and slave (bytes)
system.tol2bus14.pkt_count::total            44155938                       # Packet count per connected master and slave (bytes)
system.tol2bus14.pkt_size_system.cpu14.icache.mem_side::system.l214.cpu_side   1244049920                       # Cumulative packet size per connected master and slave (bytes)
system.tol2bus14.pkt_size_system.cpu14.dcache.mem_side::system.l214.cpu_side    254946336                       # Cumulative packet size per connected master and slave (bytes)
system.tol2bus14.pkt_size_system.cpu14.itb.walker.dma::system.l214.cpu_side     23408776                       # Cumulative packet size per connected master and slave (bytes)
system.tol2bus14.pkt_size_system.cpu14.dtb.walker.dma::system.l214.cpu_side      3791656                       # Cumulative packet size per connected master and slave (bytes)
system.tol2bus14.pkt_size::total           1526196688                       # Cumulative packet size per connected master and slave (bytes)
system.tol2bus14.snoops                        886769                       # Total snoops (count)
system.tol2bus14.snoopTraffic                 6782016                       # Total snoop traffic (bytes)
system.tol2bus14.snoop_fanout::samples       16691880                       # Request fanout histogram
system.tol2bus14.snoop_fanout::mean          0.014680                       # Request fanout histogram
system.tol2bus14.snoop_fanout::stdev         0.120270                       # Request fanout histogram
system.tol2bus14.snoop_fanout::underflows            0      0.00%      0.00% # Request fanout histogram
system.tol2bus14.snoop_fanout::0             16446835     98.53%     98.53% # Request fanout histogram
system.tol2bus14.snoop_fanout::1               245045      1.47%    100.00% # Request fanout histogram
system.tol2bus14.snoop_fanout::2                    0      0.00%    100.00% # Request fanout histogram
system.tol2bus14.snoop_fanout::overflows            0      0.00%    100.00% # Request fanout histogram
system.tol2bus14.snoop_fanout::min_value            0                       # Request fanout histogram
system.tol2bus14.snoop_fanout::max_value            1                       # Request fanout histogram
system.tol2bus14.snoop_fanout::total         16691880                       # Request fanout histogram
system.tol2bus14.directResponses                    0                       # auxiliar stat for checking how reasonable wireless model is
system.tol2bus15.snoop_filter.tot_requests      1872851                       # Total number of requests made to the snoop filter.
system.tol2bus15.snoop_filter.hit_single_requests       941092                       # Number of requests hitting in the snoop filter with a single holder of the requested data.
system.tol2bus15.snoop_filter.hit_multi_requests            0                       # Number of requests hitting in the snoop filter with multiple (>1) holders of the requested data.
system.tol2bus15.snoop_filter.tot_snoops       110258                       # Total number of snoops made to the snoop filter.
system.tol2bus15.snoop_filter.hit_single_snoops       110258                       # Number of snoops hitting in the snoop filter with a single holder of the requested data.
system.tol2bus15.snoop_filter.hit_multi_snoops            0                       # Number of snoops hitting in the snoop filter with multiple (>1) holders of the requested data.
system.tol2bus15.pwrStateResidencyTicks::UNDEFINED 10891613106347000                       # Cumulative time (in ticks) in various power states
system.tol2bus15.trans_dist::ReadReq           304195                       # Transaction distribution
system.tol2bus15.trans_dist::ReadResp         1177381                       # Transaction distribution
system.tol2bus15.trans_dist::WriteReq             612                       # Transaction distribution
system.tol2bus15.trans_dist::WriteResp            612                       # Transaction distribution
system.tol2bus15.trans_dist::WritebackDirty       121023                       # Transaction distribution
system.tol2bus15.trans_dist::WritebackClean       663399                       # Transaction distribution
system.tol2bus15.trans_dist::CleanEvict        135412                       # Transaction distribution
system.tol2bus15.trans_dist::UpgradeReq          8475                       # Transaction distribution
system.tol2bus15.trans_dist::SCUpgradeReq         8114                       # Transaction distribution
system.tol2bus15.trans_dist::UpgradeResp        16589                       # Transaction distribution
system.tol2bus15.trans_dist::ReadExReq          44938                       # Transaction distribution
system.tol2bus15.trans_dist::ReadExResp         44938                       # Transaction distribution
system.tol2bus15.trans_dist::ReadCleanReq       663911                       # Transaction distribution
system.tol2bus15.trans_dist::ReadSharedReq       209275                       # Transaction distribution
system.tol2bus15.trans_dist::InvalidateReq        13732                       # Transaction distribution
system.tol2bus15.trans_dist::InvalidateResp        13732                       # Transaction distribution
system.tol2bus15.pkt_count_system.cpu15.icache.mem_side::system.l215.cpu_side      1991221                       # Packet count per connected master and slave (bytes)
system.tol2bus15.pkt_count_system.cpu15.dcache.mem_side::system.l215.cpu_side       829235                       # Packet count per connected master and slave (bytes)
system.tol2bus15.pkt_count_system.cpu15.itb.walker.dma::system.l215.cpu_side       406956                       # Packet count per connected master and slave (bytes)
system.tol2bus15.pkt_count_system.cpu15.dtb.walker.dma::system.l215.cpu_side       198926                       # Packet count per connected master and slave (bytes)
system.tol2bus15.pkt_count::total             3426338                       # Packet count per connected master and slave (bytes)
system.tol2bus15.pkt_size_system.cpu15.icache.mem_side::system.l215.cpu_side     84947840                       # Cumulative packet size per connected master and slave (bytes)
system.tol2bus15.pkt_size_system.cpu15.dcache.mem_side::system.l215.cpu_side     24022568                       # Cumulative packet size per connected master and slave (bytes)
system.tol2bus15.pkt_size_system.cpu15.itb.walker.dma::system.l215.cpu_side      1627824                       # Cumulative packet size per connected master and slave (bytes)
system.tol2bus15.pkt_size_system.cpu15.dtb.walker.dma::system.l215.cpu_side       795704                       # Cumulative packet size per connected master and slave (bytes)
system.tol2bus15.pkt_size::total            111393936                       # Cumulative packet size per connected master and slave (bytes)
system.tol2bus15.snoops                        487143                       # Total snoops (count)
system.tol2bus15.snoopTraffic                  658624                       # Total snoop traffic (bytes)
system.tol2bus15.snoop_fanout::samples        1718638                       # Request fanout histogram
system.tol2bus15.snoop_fanout::mean          0.066815                       # Request fanout histogram
system.tol2bus15.snoop_fanout::stdev         0.249701                       # Request fanout histogram
system.tol2bus15.snoop_fanout::underflows            0      0.00%      0.00% # Request fanout histogram
system.tol2bus15.snoop_fanout::0              1603808     93.32%     93.32% # Request fanout histogram
system.tol2bus15.snoop_fanout::1               114830      6.68%    100.00% # Request fanout histogram
system.tol2bus15.snoop_fanout::2                    0      0.00%    100.00% # Request fanout histogram
system.tol2bus15.snoop_fanout::overflows            0      0.00%    100.00% # Request fanout histogram
system.tol2bus15.snoop_fanout::min_value            0                       # Request fanout histogram
system.tol2bus15.snoop_fanout::max_value            1                       # Request fanout histogram
system.tol2bus15.snoop_fanout::total          1718638                       # Request fanout histogram
system.tol2bus15.directResponses                    0                       # auxiliar stat for checking how reasonable wireless model is

---------- End Simulation Statistics   ----------
