
---------- Begin Simulation Statistics ----------
sim_seconds                               4144.504662                       # Number of seconds simulated
sim_ticks                                4144504662099500                       # Number of ticks simulated
final_tick                               10891627716880500                       # Number of ticks from beginning of simulation (restored from checkpoints and never reset)
sim_freq                                 1000000000000                       # Frequency of simulated ticks
host_inst_rate                                2583902                       # Simulator instruction rate (inst/s)
host_op_rate                                  2888555                       # Simulator op (including micro ops) rate (op/s)
host_tick_rate                           736065058845                       # Simulator tick rate (ticks/s)
host_mem_usage                                4919516                       # Number of bytes of host memory used
host_seconds                                  5630.62                       # Real time elapsed on the host
sim_insts                                 14548978004                       # Number of instructions simulated
sim_ops                                   16264365185                       # Number of ops (including micro ops) simulated
system.voltage_domain.voltage                       1                       # Voltage in Volts
system.clk_domain.clock                           625                       # Clock period in ticks
system.bootmem.pwrStateResidencyTicks::UNDEFINED 10891627716880500                       # Cumulative time (in ticks) in various power states
system.mem_ctrls.pwrStateResidencyTicks::UNDEFINED 10891627716880500                       # Cumulative time (in ticks) in various power states
system.mem_ctrls.bytes_read::cpu00.dtb.walker      1278720                       # Number of bytes read from this memory
system.mem_ctrls.bytes_read::cpu00.itb.walker       138240                       # Number of bytes read from this memory
system.mem_ctrls.bytes_read::cpu00.inst       4544704                       # Number of bytes read from this memory
system.mem_ctrls.bytes_read::cpu00.data     122948608                       # Number of bytes read from this memory
system.mem_ctrls.bytes_read::cpu01.dtb.walker         7680                       # Number of bytes read from this memory
system.mem_ctrls.bytes_read::cpu01.itb.walker        10624                       # Number of bytes read from this memory
system.mem_ctrls.bytes_read::cpu01.inst        553280                       # Number of bytes read from this memory
system.mem_ctrls.bytes_read::cpu01.data        615168                       # Number of bytes read from this memory
system.mem_ctrls.bytes_read::cpu02.dtb.walker       929792                       # Number of bytes read from this memory
system.mem_ctrls.bytes_read::cpu02.itb.walker       227200                       # Number of bytes read from this memory
system.mem_ctrls.bytes_read::cpu02.inst       4856768                       # Number of bytes read from this memory
system.mem_ctrls.bytes_read::cpu02.data      64720704                       # Number of bytes read from this memory
system.mem_ctrls.bytes_read::cpu03.dtb.walker        14784                       # Number of bytes read from this memory
system.mem_ctrls.bytes_read::cpu03.itb.walker        13120                       # Number of bytes read from this memory
system.mem_ctrls.bytes_read::cpu03.inst       1507136                       # Number of bytes read from this memory
system.mem_ctrls.bytes_read::cpu03.data       2329472                       # Number of bytes read from this memory
system.mem_ctrls.bytes_read::cpu04.dtb.walker        48320                       # Number of bytes read from this memory
system.mem_ctrls.bytes_read::cpu04.itb.walker        23296                       # Number of bytes read from this memory
system.mem_ctrls.bytes_read::cpu04.inst       1941312                       # Number of bytes read from this memory
system.mem_ctrls.bytes_read::cpu04.data       1971328                       # Number of bytes read from this memory
system.mem_ctrls.bytes_read::cpu05.dtb.walker         6208                       # Number of bytes read from this memory
system.mem_ctrls.bytes_read::cpu05.itb.walker         5504                       # Number of bytes read from this memory
system.mem_ctrls.bytes_read::cpu05.inst        585472                       # Number of bytes read from this memory
system.mem_ctrls.bytes_read::cpu05.data       1051008                       # Number of bytes read from this memory
system.mem_ctrls.bytes_read::cpu06.dtb.walker      2090048                       # Number of bytes read from this memory
system.mem_ctrls.bytes_read::cpu06.itb.walker        55040                       # Number of bytes read from this memory
system.mem_ctrls.bytes_read::cpu06.inst       4264000                       # Number of bytes read from this memory
system.mem_ctrls.bytes_read::cpu06.data      84501312                       # Number of bytes read from this memory
system.mem_ctrls.bytes_read::cpu07.dtb.walker         6336                       # Number of bytes read from this memory
system.mem_ctrls.bytes_read::cpu07.itb.walker         6848                       # Number of bytes read from this memory
system.mem_ctrls.bytes_read::cpu07.inst        594368                       # Number of bytes read from this memory
system.mem_ctrls.bytes_read::cpu07.data       1048832                       # Number of bytes read from this memory
system.mem_ctrls.bytes_read::cpu08.dtb.walker         9472                       # Number of bytes read from this memory
system.mem_ctrls.bytes_read::cpu08.itb.walker         7296                       # Number of bytes read from this memory
system.mem_ctrls.bytes_read::cpu08.inst        635264                       # Number of bytes read from this memory
system.mem_ctrls.bytes_read::cpu08.data       1278656                       # Number of bytes read from this memory
system.mem_ctrls.bytes_read::cpu09.dtb.walker        20416                       # Number of bytes read from this memory
system.mem_ctrls.bytes_read::cpu09.itb.walker        13504                       # Number of bytes read from this memory
system.mem_ctrls.bytes_read::cpu09.inst       1325568                       # Number of bytes read from this memory
system.mem_ctrls.bytes_read::cpu09.data       2412416                       # Number of bytes read from this memory
system.mem_ctrls.bytes_read::cpu10.dtb.walker         3328                       # Number of bytes read from this memory
system.mem_ctrls.bytes_read::cpu10.itb.walker         1216                       # Number of bytes read from this memory
system.mem_ctrls.bytes_read::cpu10.inst        353856                       # Number of bytes read from this memory
system.mem_ctrls.bytes_read::cpu10.data        495424                       # Number of bytes read from this memory
system.mem_ctrls.bytes_read::cpu11.dtb.walker         7936                       # Number of bytes read from this memory
system.mem_ctrls.bytes_read::cpu11.itb.walker         1344                       # Number of bytes read from this memory
system.mem_ctrls.bytes_read::cpu11.inst        417216                       # Number of bytes read from this memory
system.mem_ctrls.bytes_read::cpu11.data        885568                       # Number of bytes read from this memory
system.mem_ctrls.bytes_read::cpu12.dtb.walker         3776                       # Number of bytes read from this memory
system.mem_ctrls.bytes_read::cpu12.itb.walker         3136                       # Number of bytes read from this memory
system.mem_ctrls.bytes_read::cpu12.inst        475904                       # Number of bytes read from this memory
system.mem_ctrls.bytes_read::cpu12.data        721408                       # Number of bytes read from this memory
system.mem_ctrls.bytes_read::cpu13.dtb.walker        63936                       # Number of bytes read from this memory
system.mem_ctrls.bytes_read::cpu13.itb.walker       104128                       # Number of bytes read from this memory
system.mem_ctrls.bytes_read::cpu13.inst       2018880                       # Number of bytes read from this memory
system.mem_ctrls.bytes_read::cpu13.data       1917760                       # Number of bytes read from this memory
system.mem_ctrls.bytes_read::cpu14.dtb.walker      1242240                       # Number of bytes read from this memory
system.mem_ctrls.bytes_read::cpu14.itb.walker      1074304                       # Number of bytes read from this memory
system.mem_ctrls.bytes_read::cpu14.inst      22626944                       # Number of bytes read from this memory
system.mem_ctrls.bytes_read::cpu14.data      18972800                       # Number of bytes read from this memory
system.mem_ctrls.bytes_read::cpu15.dtb.walker        46656                       # Number of bytes read from this memory
system.mem_ctrls.bytes_read::cpu15.itb.walker        55040                       # Number of bytes read from this memory
system.mem_ctrls.bytes_read::cpu15.inst       1623232                       # Number of bytes read from this memory
system.mem_ctrls.bytes_read::cpu15.data       2112192                       # Number of bytes read from this memory
system.mem_ctrls.bytes_read::total          363826048                       # Number of bytes read from this memory
system.mem_ctrls.bytes_inst_read::cpu00.inst      4544704                       # Number of instructions bytes read from this memory
system.mem_ctrls.bytes_inst_read::cpu01.inst       553280                       # Number of instructions bytes read from this memory
system.mem_ctrls.bytes_inst_read::cpu02.inst      4856768                       # Number of instructions bytes read from this memory
system.mem_ctrls.bytes_inst_read::cpu03.inst      1507136                       # Number of instructions bytes read from this memory
system.mem_ctrls.bytes_inst_read::cpu04.inst      1941312                       # Number of instructions bytes read from this memory
system.mem_ctrls.bytes_inst_read::cpu05.inst       585472                       # Number of instructions bytes read from this memory
system.mem_ctrls.bytes_inst_read::cpu06.inst      4264000                       # Number of instructions bytes read from this memory
system.mem_ctrls.bytes_inst_read::cpu07.inst       594368                       # Number of instructions bytes read from this memory
system.mem_ctrls.bytes_inst_read::cpu08.inst       635264                       # Number of instructions bytes read from this memory
system.mem_ctrls.bytes_inst_read::cpu09.inst      1325568                       # Number of instructions bytes read from this memory
system.mem_ctrls.bytes_inst_read::cpu10.inst       353856                       # Number of instructions bytes read from this memory
system.mem_ctrls.bytes_inst_read::cpu11.inst       417216                       # Number of instructions bytes read from this memory
system.mem_ctrls.bytes_inst_read::cpu12.inst       475904                       # Number of instructions bytes read from this memory
system.mem_ctrls.bytes_inst_read::cpu13.inst      2018880                       # Number of instructions bytes read from this memory
system.mem_ctrls.bytes_inst_read::cpu14.inst     22626944                       # Number of instructions bytes read from this memory
system.mem_ctrls.bytes_inst_read::cpu15.inst      1623232                       # Number of instructions bytes read from this memory
system.mem_ctrls.bytes_inst_read::total      48323904                       # Number of instructions bytes read from this memory
system.mem_ctrls.bytes_written::writebacks    169088192                       # Number of bytes written to this memory
system.mem_ctrls.bytes_written::total       169088192                       # Number of bytes written to this memory
system.mem_ctrls.num_reads::cpu00.dtb.walker        19980                       # Number of read requests responded to by this memory
system.mem_ctrls.num_reads::cpu00.itb.walker         2160                       # Number of read requests responded to by this memory
system.mem_ctrls.num_reads::cpu00.inst          71011                       # Number of read requests responded to by this memory
system.mem_ctrls.num_reads::cpu00.data        1921072                       # Number of read requests responded to by this memory
system.mem_ctrls.num_reads::cpu01.dtb.walker          120                       # Number of read requests responded to by this memory
system.mem_ctrls.num_reads::cpu01.itb.walker          166                       # Number of read requests responded to by this memory
system.mem_ctrls.num_reads::cpu01.inst           8645                       # Number of read requests responded to by this memory
system.mem_ctrls.num_reads::cpu01.data           9612                       # Number of read requests responded to by this memory
system.mem_ctrls.num_reads::cpu02.dtb.walker        14528                       # Number of read requests responded to by this memory
system.mem_ctrls.num_reads::cpu02.itb.walker         3550                       # Number of read requests responded to by this memory
system.mem_ctrls.num_reads::cpu02.inst          75887                       # Number of read requests responded to by this memory
system.mem_ctrls.num_reads::cpu02.data        1011261                       # Number of read requests responded to by this memory
system.mem_ctrls.num_reads::cpu03.dtb.walker          231                       # Number of read requests responded to by this memory
system.mem_ctrls.num_reads::cpu03.itb.walker          205                       # Number of read requests responded to by this memory
system.mem_ctrls.num_reads::cpu03.inst          23549                       # Number of read requests responded to by this memory
system.mem_ctrls.num_reads::cpu03.data          36398                       # Number of read requests responded to by this memory
system.mem_ctrls.num_reads::cpu04.dtb.walker          755                       # Number of read requests responded to by this memory
system.mem_ctrls.num_reads::cpu04.itb.walker          364                       # Number of read requests responded to by this memory
system.mem_ctrls.num_reads::cpu04.inst          30333                       # Number of read requests responded to by this memory
system.mem_ctrls.num_reads::cpu04.data          30802                       # Number of read requests responded to by this memory
system.mem_ctrls.num_reads::cpu05.dtb.walker           97                       # Number of read requests responded to by this memory
system.mem_ctrls.num_reads::cpu05.itb.walker           86                       # Number of read requests responded to by this memory
system.mem_ctrls.num_reads::cpu05.inst           9148                       # Number of read requests responded to by this memory
system.mem_ctrls.num_reads::cpu05.data          16422                       # Number of read requests responded to by this memory
system.mem_ctrls.num_reads::cpu06.dtb.walker        32657                       # Number of read requests responded to by this memory
system.mem_ctrls.num_reads::cpu06.itb.walker          860                       # Number of read requests responded to by this memory
system.mem_ctrls.num_reads::cpu06.inst          66625                       # Number of read requests responded to by this memory
system.mem_ctrls.num_reads::cpu06.data        1320333                       # Number of read requests responded to by this memory
system.mem_ctrls.num_reads::cpu07.dtb.walker           99                       # Number of read requests responded to by this memory
system.mem_ctrls.num_reads::cpu07.itb.walker          107                       # Number of read requests responded to by this memory
system.mem_ctrls.num_reads::cpu07.inst           9287                       # Number of read requests responded to by this memory
system.mem_ctrls.num_reads::cpu07.data          16388                       # Number of read requests responded to by this memory
system.mem_ctrls.num_reads::cpu08.dtb.walker          148                       # Number of read requests responded to by this memory
system.mem_ctrls.num_reads::cpu08.itb.walker          114                       # Number of read requests responded to by this memory
system.mem_ctrls.num_reads::cpu08.inst           9926                       # Number of read requests responded to by this memory
system.mem_ctrls.num_reads::cpu08.data          19979                       # Number of read requests responded to by this memory
system.mem_ctrls.num_reads::cpu09.dtb.walker          319                       # Number of read requests responded to by this memory
system.mem_ctrls.num_reads::cpu09.itb.walker          211                       # Number of read requests responded to by this memory
system.mem_ctrls.num_reads::cpu09.inst          20712                       # Number of read requests responded to by this memory
system.mem_ctrls.num_reads::cpu09.data          37694                       # Number of read requests responded to by this memory
system.mem_ctrls.num_reads::cpu10.dtb.walker           52                       # Number of read requests responded to by this memory
system.mem_ctrls.num_reads::cpu10.itb.walker           19                       # Number of read requests responded to by this memory
system.mem_ctrls.num_reads::cpu10.inst           5529                       # Number of read requests responded to by this memory
system.mem_ctrls.num_reads::cpu10.data           7741                       # Number of read requests responded to by this memory
system.mem_ctrls.num_reads::cpu11.dtb.walker          124                       # Number of read requests responded to by this memory
system.mem_ctrls.num_reads::cpu11.itb.walker           21                       # Number of read requests responded to by this memory
system.mem_ctrls.num_reads::cpu11.inst           6519                       # Number of read requests responded to by this memory
system.mem_ctrls.num_reads::cpu11.data          13837                       # Number of read requests responded to by this memory
system.mem_ctrls.num_reads::cpu12.dtb.walker           59                       # Number of read requests responded to by this memory
system.mem_ctrls.num_reads::cpu12.itb.walker           49                       # Number of read requests responded to by this memory
system.mem_ctrls.num_reads::cpu12.inst           7436                       # Number of read requests responded to by this memory
system.mem_ctrls.num_reads::cpu12.data          11272                       # Number of read requests responded to by this memory
system.mem_ctrls.num_reads::cpu13.dtb.walker          999                       # Number of read requests responded to by this memory
system.mem_ctrls.num_reads::cpu13.itb.walker         1627                       # Number of read requests responded to by this memory
system.mem_ctrls.num_reads::cpu13.inst          31545                       # Number of read requests responded to by this memory
system.mem_ctrls.num_reads::cpu13.data          29965                       # Number of read requests responded to by this memory
system.mem_ctrls.num_reads::cpu14.dtb.walker        19410                       # Number of read requests responded to by this memory
system.mem_ctrls.num_reads::cpu14.itb.walker        16786                       # Number of read requests responded to by this memory
system.mem_ctrls.num_reads::cpu14.inst         353546                       # Number of read requests responded to by this memory
system.mem_ctrls.num_reads::cpu14.data         296450                       # Number of read requests responded to by this memory
system.mem_ctrls.num_reads::cpu15.dtb.walker          729                       # Number of read requests responded to by this memory
system.mem_ctrls.num_reads::cpu15.itb.walker          860                       # Number of read requests responded to by this memory
system.mem_ctrls.num_reads::cpu15.inst          25363                       # Number of read requests responded to by this memory
system.mem_ctrls.num_reads::cpu15.data          33003                       # Number of read requests responded to by this memory
system.mem_ctrls.num_reads::total             5684782                       # Number of read requests responded to by this memory
system.mem_ctrls.num_writes::writebacks       2642003                       # Number of write requests responded to by this memory
system.mem_ctrls.num_writes::total            2642003                       # Number of write requests responded to by this memory
system.mem_ctrls.bw_read::cpu00.dtb.walker          309                       # Total read bandwidth from this memory (bytes/s)
system.mem_ctrls.bw_read::cpu00.itb.walker           33                       # Total read bandwidth from this memory (bytes/s)
system.mem_ctrls.bw_read::cpu00.inst             1097                       # Total read bandwidth from this memory (bytes/s)
system.mem_ctrls.bw_read::cpu00.data            29665                       # Total read bandwidth from this memory (bytes/s)
system.mem_ctrls.bw_read::cpu01.dtb.walker            2                       # Total read bandwidth from this memory (bytes/s)
system.mem_ctrls.bw_read::cpu01.itb.walker            3                       # Total read bandwidth from this memory (bytes/s)
system.mem_ctrls.bw_read::cpu01.inst              133                       # Total read bandwidth from this memory (bytes/s)
system.mem_ctrls.bw_read::cpu01.data              148                       # Total read bandwidth from this memory (bytes/s)
system.mem_ctrls.bw_read::cpu02.dtb.walker          224                       # Total read bandwidth from this memory (bytes/s)
system.mem_ctrls.bw_read::cpu02.itb.walker           55                       # Total read bandwidth from this memory (bytes/s)
system.mem_ctrls.bw_read::cpu02.inst             1172                       # Total read bandwidth from this memory (bytes/s)
system.mem_ctrls.bw_read::cpu02.data            15616                       # Total read bandwidth from this memory (bytes/s)
system.mem_ctrls.bw_read::cpu03.dtb.walker            4                       # Total read bandwidth from this memory (bytes/s)
system.mem_ctrls.bw_read::cpu03.itb.walker            3                       # Total read bandwidth from this memory (bytes/s)
system.mem_ctrls.bw_read::cpu03.inst              364                       # Total read bandwidth from this memory (bytes/s)
system.mem_ctrls.bw_read::cpu03.data              562                       # Total read bandwidth from this memory (bytes/s)
system.mem_ctrls.bw_read::cpu04.dtb.walker           12                       # Total read bandwidth from this memory (bytes/s)
system.mem_ctrls.bw_read::cpu04.itb.walker            6                       # Total read bandwidth from this memory (bytes/s)
system.mem_ctrls.bw_read::cpu04.inst              468                       # Total read bandwidth from this memory (bytes/s)
system.mem_ctrls.bw_read::cpu04.data              476                       # Total read bandwidth from this memory (bytes/s)
system.mem_ctrls.bw_read::cpu05.dtb.walker            1                       # Total read bandwidth from this memory (bytes/s)
system.mem_ctrls.bw_read::cpu05.itb.walker            1                       # Total read bandwidth from this memory (bytes/s)
system.mem_ctrls.bw_read::cpu05.inst              141                       # Total read bandwidth from this memory (bytes/s)
system.mem_ctrls.bw_read::cpu05.data              254                       # Total read bandwidth from this memory (bytes/s)
system.mem_ctrls.bw_read::cpu06.dtb.walker          504                       # Total read bandwidth from this memory (bytes/s)
system.mem_ctrls.bw_read::cpu06.itb.walker           13                       # Total read bandwidth from this memory (bytes/s)
system.mem_ctrls.bw_read::cpu06.inst             1029                       # Total read bandwidth from this memory (bytes/s)
system.mem_ctrls.bw_read::cpu06.data            20389                       # Total read bandwidth from this memory (bytes/s)
system.mem_ctrls.bw_read::cpu07.dtb.walker            2                       # Total read bandwidth from this memory (bytes/s)
system.mem_ctrls.bw_read::cpu07.itb.walker            2                       # Total read bandwidth from this memory (bytes/s)
system.mem_ctrls.bw_read::cpu07.inst              143                       # Total read bandwidth from this memory (bytes/s)
system.mem_ctrls.bw_read::cpu07.data              253                       # Total read bandwidth from this memory (bytes/s)
system.mem_ctrls.bw_read::cpu08.dtb.walker            2                       # Total read bandwidth from this memory (bytes/s)
system.mem_ctrls.bw_read::cpu08.itb.walker            2                       # Total read bandwidth from this memory (bytes/s)
system.mem_ctrls.bw_read::cpu08.inst              153                       # Total read bandwidth from this memory (bytes/s)
system.mem_ctrls.bw_read::cpu08.data              309                       # Total read bandwidth from this memory (bytes/s)
system.mem_ctrls.bw_read::cpu09.dtb.walker            5                       # Total read bandwidth from this memory (bytes/s)
system.mem_ctrls.bw_read::cpu09.itb.walker            3                       # Total read bandwidth from this memory (bytes/s)
system.mem_ctrls.bw_read::cpu09.inst              320                       # Total read bandwidth from this memory (bytes/s)
system.mem_ctrls.bw_read::cpu09.data              582                       # Total read bandwidth from this memory (bytes/s)
system.mem_ctrls.bw_read::cpu10.dtb.walker            1                       # Total read bandwidth from this memory (bytes/s)
system.mem_ctrls.bw_read::cpu10.itb.walker            0                       # Total read bandwidth from this memory (bytes/s)
system.mem_ctrls.bw_read::cpu10.inst               85                       # Total read bandwidth from this memory (bytes/s)
system.mem_ctrls.bw_read::cpu10.data              120                       # Total read bandwidth from this memory (bytes/s)
system.mem_ctrls.bw_read::cpu11.dtb.walker            2                       # Total read bandwidth from this memory (bytes/s)
system.mem_ctrls.bw_read::cpu11.itb.walker            0                       # Total read bandwidth from this memory (bytes/s)
system.mem_ctrls.bw_read::cpu11.inst              101                       # Total read bandwidth from this memory (bytes/s)
system.mem_ctrls.bw_read::cpu11.data              214                       # Total read bandwidth from this memory (bytes/s)
system.mem_ctrls.bw_read::cpu12.dtb.walker            1                       # Total read bandwidth from this memory (bytes/s)
system.mem_ctrls.bw_read::cpu12.itb.walker            1                       # Total read bandwidth from this memory (bytes/s)
system.mem_ctrls.bw_read::cpu12.inst              115                       # Total read bandwidth from this memory (bytes/s)
system.mem_ctrls.bw_read::cpu12.data              174                       # Total read bandwidth from this memory (bytes/s)
system.mem_ctrls.bw_read::cpu13.dtb.walker           15                       # Total read bandwidth from this memory (bytes/s)
system.mem_ctrls.bw_read::cpu13.itb.walker           25                       # Total read bandwidth from this memory (bytes/s)
system.mem_ctrls.bw_read::cpu13.inst              487                       # Total read bandwidth from this memory (bytes/s)
system.mem_ctrls.bw_read::cpu13.data              463                       # Total read bandwidth from this memory (bytes/s)
system.mem_ctrls.bw_read::cpu14.dtb.walker          300                       # Total read bandwidth from this memory (bytes/s)
system.mem_ctrls.bw_read::cpu14.itb.walker          259                       # Total read bandwidth from this memory (bytes/s)
system.mem_ctrls.bw_read::cpu14.inst             5460                       # Total read bandwidth from this memory (bytes/s)
system.mem_ctrls.bw_read::cpu14.data             4578                       # Total read bandwidth from this memory (bytes/s)
system.mem_ctrls.bw_read::cpu15.dtb.walker           11                       # Total read bandwidth from this memory (bytes/s)
system.mem_ctrls.bw_read::cpu15.itb.walker           13                       # Total read bandwidth from this memory (bytes/s)
system.mem_ctrls.bw_read::cpu15.inst              392                       # Total read bandwidth from this memory (bytes/s)
system.mem_ctrls.bw_read::cpu15.data              510                       # Total read bandwidth from this memory (bytes/s)
system.mem_ctrls.bw_read::total                 87785                       # Total read bandwidth from this memory (bytes/s)
system.mem_ctrls.bw_inst_read::cpu00.inst         1097                       # Instruction read bandwidth from this memory (bytes/s)
system.mem_ctrls.bw_inst_read::cpu01.inst          133                       # Instruction read bandwidth from this memory (bytes/s)
system.mem_ctrls.bw_inst_read::cpu02.inst         1172                       # Instruction read bandwidth from this memory (bytes/s)
system.mem_ctrls.bw_inst_read::cpu03.inst          364                       # Instruction read bandwidth from this memory (bytes/s)
system.mem_ctrls.bw_inst_read::cpu04.inst          468                       # Instruction read bandwidth from this memory (bytes/s)
system.mem_ctrls.bw_inst_read::cpu05.inst          141                       # Instruction read bandwidth from this memory (bytes/s)
system.mem_ctrls.bw_inst_read::cpu06.inst         1029                       # Instruction read bandwidth from this memory (bytes/s)
system.mem_ctrls.bw_inst_read::cpu07.inst          143                       # Instruction read bandwidth from this memory (bytes/s)
system.mem_ctrls.bw_inst_read::cpu08.inst          153                       # Instruction read bandwidth from this memory (bytes/s)
system.mem_ctrls.bw_inst_read::cpu09.inst          320                       # Instruction read bandwidth from this memory (bytes/s)
system.mem_ctrls.bw_inst_read::cpu10.inst           85                       # Instruction read bandwidth from this memory (bytes/s)
system.mem_ctrls.bw_inst_read::cpu11.inst          101                       # Instruction read bandwidth from this memory (bytes/s)
system.mem_ctrls.bw_inst_read::cpu12.inst          115                       # Instruction read bandwidth from this memory (bytes/s)
system.mem_ctrls.bw_inst_read::cpu13.inst          487                       # Instruction read bandwidth from this memory (bytes/s)
system.mem_ctrls.bw_inst_read::cpu14.inst         5460                       # Instruction read bandwidth from this memory (bytes/s)
system.mem_ctrls.bw_inst_read::cpu15.inst          392                       # Instruction read bandwidth from this memory (bytes/s)
system.mem_ctrls.bw_inst_read::total            11660                       # Instruction read bandwidth from this memory (bytes/s)
system.mem_ctrls.bw_write::writebacks           40798                       # Write bandwidth from this memory (bytes/s)
system.mem_ctrls.bw_write::total                40798                       # Write bandwidth from this memory (bytes/s)
system.mem_ctrls.bw_total::writebacks           40798                       # Total bandwidth to/from this memory (bytes/s)
system.mem_ctrls.bw_total::cpu00.dtb.walker          309                       # Total bandwidth to/from this memory (bytes/s)
system.mem_ctrls.bw_total::cpu00.itb.walker           33                       # Total bandwidth to/from this memory (bytes/s)
system.mem_ctrls.bw_total::cpu00.inst            1097                       # Total bandwidth to/from this memory (bytes/s)
system.mem_ctrls.bw_total::cpu00.data           29665                       # Total bandwidth to/from this memory (bytes/s)
system.mem_ctrls.bw_total::cpu01.dtb.walker            2                       # Total bandwidth to/from this memory (bytes/s)
system.mem_ctrls.bw_total::cpu01.itb.walker            3                       # Total bandwidth to/from this memory (bytes/s)
system.mem_ctrls.bw_total::cpu01.inst             133                       # Total bandwidth to/from this memory (bytes/s)
system.mem_ctrls.bw_total::cpu01.data             148                       # Total bandwidth to/from this memory (bytes/s)
system.mem_ctrls.bw_total::cpu02.dtb.walker          224                       # Total bandwidth to/from this memory (bytes/s)
system.mem_ctrls.bw_total::cpu02.itb.walker           55                       # Total bandwidth to/from this memory (bytes/s)
system.mem_ctrls.bw_total::cpu02.inst            1172                       # Total bandwidth to/from this memory (bytes/s)
system.mem_ctrls.bw_total::cpu02.data           15616                       # Total bandwidth to/from this memory (bytes/s)
system.mem_ctrls.bw_total::cpu03.dtb.walker            4                       # Total bandwidth to/from this memory (bytes/s)
system.mem_ctrls.bw_total::cpu03.itb.walker            3                       # Total bandwidth to/from this memory (bytes/s)
system.mem_ctrls.bw_total::cpu03.inst             364                       # Total bandwidth to/from this memory (bytes/s)
system.mem_ctrls.bw_total::cpu03.data             562                       # Total bandwidth to/from this memory (bytes/s)
system.mem_ctrls.bw_total::cpu04.dtb.walker           12                       # Total bandwidth to/from this memory (bytes/s)
system.mem_ctrls.bw_total::cpu04.itb.walker            6                       # Total bandwidth to/from this memory (bytes/s)
system.mem_ctrls.bw_total::cpu04.inst             468                       # Total bandwidth to/from this memory (bytes/s)
system.mem_ctrls.bw_total::cpu04.data             476                       # Total bandwidth to/from this memory (bytes/s)
system.mem_ctrls.bw_total::cpu05.dtb.walker            1                       # Total bandwidth to/from this memory (bytes/s)
system.mem_ctrls.bw_total::cpu05.itb.walker            1                       # Total bandwidth to/from this memory (bytes/s)
system.mem_ctrls.bw_total::cpu05.inst             141                       # Total bandwidth to/from this memory (bytes/s)
system.mem_ctrls.bw_total::cpu05.data             254                       # Total bandwidth to/from this memory (bytes/s)
system.mem_ctrls.bw_total::cpu06.dtb.walker          504                       # Total bandwidth to/from this memory (bytes/s)
system.mem_ctrls.bw_total::cpu06.itb.walker           13                       # Total bandwidth to/from this memory (bytes/s)
system.mem_ctrls.bw_total::cpu06.inst            1029                       # Total bandwidth to/from this memory (bytes/s)
system.mem_ctrls.bw_total::cpu06.data           20389                       # Total bandwidth to/from this memory (bytes/s)
system.mem_ctrls.bw_total::cpu07.dtb.walker            2                       # Total bandwidth to/from this memory (bytes/s)
system.mem_ctrls.bw_total::cpu07.itb.walker            2                       # Total bandwidth to/from this memory (bytes/s)
system.mem_ctrls.bw_total::cpu07.inst             143                       # Total bandwidth to/from this memory (bytes/s)
system.mem_ctrls.bw_total::cpu07.data             253                       # Total bandwidth to/from this memory (bytes/s)
system.mem_ctrls.bw_total::cpu08.dtb.walker            2                       # Total bandwidth to/from this memory (bytes/s)
system.mem_ctrls.bw_total::cpu08.itb.walker            2                       # Total bandwidth to/from this memory (bytes/s)
system.mem_ctrls.bw_total::cpu08.inst             153                       # Total bandwidth to/from this memory (bytes/s)
system.mem_ctrls.bw_total::cpu08.data             309                       # Total bandwidth to/from this memory (bytes/s)
system.mem_ctrls.bw_total::cpu09.dtb.walker            5                       # Total bandwidth to/from this memory (bytes/s)
system.mem_ctrls.bw_total::cpu09.itb.walker            3                       # Total bandwidth to/from this memory (bytes/s)
system.mem_ctrls.bw_total::cpu09.inst             320                       # Total bandwidth to/from this memory (bytes/s)
system.mem_ctrls.bw_total::cpu09.data             582                       # Total bandwidth to/from this memory (bytes/s)
system.mem_ctrls.bw_total::cpu10.dtb.walker            1                       # Total bandwidth to/from this memory (bytes/s)
system.mem_ctrls.bw_total::cpu10.itb.walker            0                       # Total bandwidth to/from this memory (bytes/s)
system.mem_ctrls.bw_total::cpu10.inst              85                       # Total bandwidth to/from this memory (bytes/s)
system.mem_ctrls.bw_total::cpu10.data             120                       # Total bandwidth to/from this memory (bytes/s)
system.mem_ctrls.bw_total::cpu11.dtb.walker            2                       # Total bandwidth to/from this memory (bytes/s)
system.mem_ctrls.bw_total::cpu11.itb.walker            0                       # Total bandwidth to/from this memory (bytes/s)
system.mem_ctrls.bw_total::cpu11.inst             101                       # Total bandwidth to/from this memory (bytes/s)
system.mem_ctrls.bw_total::cpu11.data             214                       # Total bandwidth to/from this memory (bytes/s)
system.mem_ctrls.bw_total::cpu12.dtb.walker            1                       # Total bandwidth to/from this memory (bytes/s)
system.mem_ctrls.bw_total::cpu12.itb.walker            1                       # Total bandwidth to/from this memory (bytes/s)
system.mem_ctrls.bw_total::cpu12.inst             115                       # Total bandwidth to/from this memory (bytes/s)
system.mem_ctrls.bw_total::cpu12.data             174                       # Total bandwidth to/from this memory (bytes/s)
system.mem_ctrls.bw_total::cpu13.dtb.walker           15                       # Total bandwidth to/from this memory (bytes/s)
system.mem_ctrls.bw_total::cpu13.itb.walker           25                       # Total bandwidth to/from this memory (bytes/s)
system.mem_ctrls.bw_total::cpu13.inst             487                       # Total bandwidth to/from this memory (bytes/s)
system.mem_ctrls.bw_total::cpu13.data             463                       # Total bandwidth to/from this memory (bytes/s)
system.mem_ctrls.bw_total::cpu14.dtb.walker          300                       # Total bandwidth to/from this memory (bytes/s)
system.mem_ctrls.bw_total::cpu14.itb.walker          259                       # Total bandwidth to/from this memory (bytes/s)
system.mem_ctrls.bw_total::cpu14.inst            5460                       # Total bandwidth to/from this memory (bytes/s)
system.mem_ctrls.bw_total::cpu14.data            4578                       # Total bandwidth to/from this memory (bytes/s)
system.mem_ctrls.bw_total::cpu15.dtb.walker           11                       # Total bandwidth to/from this memory (bytes/s)
system.mem_ctrls.bw_total::cpu15.itb.walker           13                       # Total bandwidth to/from this memory (bytes/s)
system.mem_ctrls.bw_total::cpu15.inst             392                       # Total bandwidth to/from this memory (bytes/s)
system.mem_ctrls.bw_total::cpu15.data             510                       # Total bandwidth to/from this memory (bytes/s)
system.mem_ctrls.bw_total::total               128583                       # Total bandwidth to/from this memory (bytes/s)
system.mem_ctrls.readReqs                           0                       # Number of read requests accepted
system.mem_ctrls.writeReqs                          0                       # Number of write requests accepted
system.mem_ctrls.readBursts                         0                       # Number of DRAM read bursts, including those serviced by the write queue
system.mem_ctrls.writeBursts                        0                       # Number of DRAM write bursts, including those merged in the write queue
system.mem_ctrls.bytesReadDRAM                      0                       # Total number of bytes read from DRAM
system.mem_ctrls.bytesReadWrQ                       0                       # Total number of bytes read from write queue
system.mem_ctrls.bytesWritten                       0                       # Total number of bytes written to DRAM
system.mem_ctrls.bytesReadSys                       0                       # Total read bytes from the system interface side
system.mem_ctrls.bytesWrittenSys                    0                       # Total written bytes from the system interface side
system.mem_ctrls.servicedByWrQ                      0                       # Number of DRAM read bursts serviced by the write queue
system.mem_ctrls.mergedWrBursts                     0                       # Number of DRAM write bursts merged with an existing one
system.mem_ctrls.neitherReadNorWriteReqs            0                       # Number of requests that are neither read nor write
system.mem_ctrls.perBankRdBursts::0                 0                       # Per bank write bursts
system.mem_ctrls.perBankRdBursts::1                 0                       # Per bank write bursts
system.mem_ctrls.perBankRdBursts::2                 0                       # Per bank write bursts
system.mem_ctrls.perBankRdBursts::3                 0                       # Per bank write bursts
system.mem_ctrls.perBankRdBursts::4                 0                       # Per bank write bursts
system.mem_ctrls.perBankRdBursts::5                 0                       # Per bank write bursts
system.mem_ctrls.perBankRdBursts::6                 0                       # Per bank write bursts
system.mem_ctrls.perBankRdBursts::7                 0                       # Per bank write bursts
system.mem_ctrls.perBankRdBursts::8                 0                       # Per bank write bursts
system.mem_ctrls.perBankRdBursts::9                 0                       # Per bank write bursts
system.mem_ctrls.perBankRdBursts::10                0                       # Per bank write bursts
system.mem_ctrls.perBankRdBursts::11                0                       # Per bank write bursts
system.mem_ctrls.perBankRdBursts::12                0                       # Per bank write bursts
system.mem_ctrls.perBankRdBursts::13                0                       # Per bank write bursts
system.mem_ctrls.perBankRdBursts::14                0                       # Per bank write bursts
system.mem_ctrls.perBankRdBursts::15                0                       # Per bank write bursts
system.mem_ctrls.perBankRdBursts::16                0                       # Per bank write bursts
system.mem_ctrls.perBankRdBursts::17                0                       # Per bank write bursts
system.mem_ctrls.perBankRdBursts::18                0                       # Per bank write bursts
system.mem_ctrls.perBankRdBursts::19                0                       # Per bank write bursts
system.mem_ctrls.perBankRdBursts::20                0                       # Per bank write bursts
system.mem_ctrls.perBankRdBursts::21                0                       # Per bank write bursts
system.mem_ctrls.perBankRdBursts::22                0                       # Per bank write bursts
system.mem_ctrls.perBankRdBursts::23                0                       # Per bank write bursts
system.mem_ctrls.perBankRdBursts::24                0                       # Per bank write bursts
system.mem_ctrls.perBankRdBursts::25                0                       # Per bank write bursts
system.mem_ctrls.perBankRdBursts::26                0                       # Per bank write bursts
system.mem_ctrls.perBankRdBursts::27                0                       # Per bank write bursts
system.mem_ctrls.perBankRdBursts::28                0                       # Per bank write bursts
system.mem_ctrls.perBankRdBursts::29                0                       # Per bank write bursts
system.mem_ctrls.perBankRdBursts::30                0                       # Per bank write bursts
system.mem_ctrls.perBankRdBursts::31                0                       # Per bank write bursts
system.mem_ctrls.perBankWrBursts::0                 0                       # Per bank write bursts
system.mem_ctrls.perBankWrBursts::1                 0                       # Per bank write bursts
system.mem_ctrls.perBankWrBursts::2                 0                       # Per bank write bursts
system.mem_ctrls.perBankWrBursts::3                 0                       # Per bank write bursts
system.mem_ctrls.perBankWrBursts::4                 0                       # Per bank write bursts
system.mem_ctrls.perBankWrBursts::5                 0                       # Per bank write bursts
system.mem_ctrls.perBankWrBursts::6                 0                       # Per bank write bursts
system.mem_ctrls.perBankWrBursts::7                 0                       # Per bank write bursts
system.mem_ctrls.perBankWrBursts::8                 0                       # Per bank write bursts
system.mem_ctrls.perBankWrBursts::9                 0                       # Per bank write bursts
system.mem_ctrls.perBankWrBursts::10                0                       # Per bank write bursts
system.mem_ctrls.perBankWrBursts::11                0                       # Per bank write bursts
system.mem_ctrls.perBankWrBursts::12                0                       # Per bank write bursts
system.mem_ctrls.perBankWrBursts::13                0                       # Per bank write bursts
system.mem_ctrls.perBankWrBursts::14                0                       # Per bank write bursts
system.mem_ctrls.perBankWrBursts::15                0                       # Per bank write bursts
system.mem_ctrls.perBankWrBursts::16                0                       # Per bank write bursts
system.mem_ctrls.perBankWrBursts::17                0                       # Per bank write bursts
system.mem_ctrls.perBankWrBursts::18                0                       # Per bank write bursts
system.mem_ctrls.perBankWrBursts::19                0                       # Per bank write bursts
system.mem_ctrls.perBankWrBursts::20                0                       # Per bank write bursts
system.mem_ctrls.perBankWrBursts::21                0                       # Per bank write bursts
system.mem_ctrls.perBankWrBursts::22                0                       # Per bank write bursts
system.mem_ctrls.perBankWrBursts::23                0                       # Per bank write bursts
system.mem_ctrls.perBankWrBursts::24                0                       # Per bank write bursts
system.mem_ctrls.perBankWrBursts::25                0                       # Per bank write bursts
system.mem_ctrls.perBankWrBursts::26                0                       # Per bank write bursts
system.mem_ctrls.perBankWrBursts::27                0                       # Per bank write bursts
system.mem_ctrls.perBankWrBursts::28                0                       # Per bank write bursts
system.mem_ctrls.perBankWrBursts::29                0                       # Per bank write bursts
system.mem_ctrls.perBankWrBursts::30                0                       # Per bank write bursts
system.mem_ctrls.perBankWrBursts::31                0                       # Per bank write bursts
system.mem_ctrls.numRdRetry                         0                       # Number of times read queue was full causing retry
system.mem_ctrls.numWrRetry                         0                       # Number of times write queue was full causing retry
system.mem_ctrls.totGap                             0                       # Total gap between requests
system.mem_ctrls.readPktSize::0                     0                       # Read request sizes (log2)
system.mem_ctrls.readPktSize::1                     0                       # Read request sizes (log2)
system.mem_ctrls.readPktSize::2                     0                       # Read request sizes (log2)
system.mem_ctrls.readPktSize::3                     0                       # Read request sizes (log2)
system.mem_ctrls.readPktSize::4                     0                       # Read request sizes (log2)
system.mem_ctrls.readPktSize::5                     0                       # Read request sizes (log2)
system.mem_ctrls.readPktSize::6                     0                       # Read request sizes (log2)
system.mem_ctrls.writePktSize::0                    0                       # Write request sizes (log2)
system.mem_ctrls.writePktSize::1                    0                       # Write request sizes (log2)
system.mem_ctrls.writePktSize::2                    0                       # Write request sizes (log2)
system.mem_ctrls.writePktSize::3                    0                       # Write request sizes (log2)
system.mem_ctrls.writePktSize::4                    0                       # Write request sizes (log2)
system.mem_ctrls.writePktSize::5                    0                       # Write request sizes (log2)
system.mem_ctrls.writePktSize::6                    0                       # Write request sizes (log2)
system.mem_ctrls.rdQLenPdf::0                       0                       # What read queue length does an incoming req see
system.mem_ctrls.rdQLenPdf::1                       0                       # What read queue length does an incoming req see
system.mem_ctrls.rdQLenPdf::2                       0                       # What read queue length does an incoming req see
system.mem_ctrls.rdQLenPdf::3                       0                       # What read queue length does an incoming req see
system.mem_ctrls.rdQLenPdf::4                       0                       # What read queue length does an incoming req see
system.mem_ctrls.rdQLenPdf::5                       0                       # What read queue length does an incoming req see
system.mem_ctrls.rdQLenPdf::6                       0                       # What read queue length does an incoming req see
system.mem_ctrls.rdQLenPdf::7                       0                       # What read queue length does an incoming req see
system.mem_ctrls.rdQLenPdf::8                       0                       # What read queue length does an incoming req see
system.mem_ctrls.rdQLenPdf::9                       0                       # What read queue length does an incoming req see
system.mem_ctrls.rdQLenPdf::10                      0                       # What read queue length does an incoming req see
system.mem_ctrls.rdQLenPdf::11                      0                       # What read queue length does an incoming req see
system.mem_ctrls.rdQLenPdf::12                      0                       # What read queue length does an incoming req see
system.mem_ctrls.rdQLenPdf::13                      0                       # What read queue length does an incoming req see
system.mem_ctrls.rdQLenPdf::14                      0                       # What read queue length does an incoming req see
system.mem_ctrls.rdQLenPdf::15                      0                       # What read queue length does an incoming req see
system.mem_ctrls.rdQLenPdf::16                      0                       # What read queue length does an incoming req see
system.mem_ctrls.rdQLenPdf::17                      0                       # What read queue length does an incoming req see
system.mem_ctrls.rdQLenPdf::18                      0                       # What read queue length does an incoming req see
system.mem_ctrls.rdQLenPdf::19                      0                       # What read queue length does an incoming req see
system.mem_ctrls.rdQLenPdf::20                      0                       # What read queue length does an incoming req see
system.mem_ctrls.rdQLenPdf::21                      0                       # What read queue length does an incoming req see
system.mem_ctrls.rdQLenPdf::22                      0                       # What read queue length does an incoming req see
system.mem_ctrls.rdQLenPdf::23                      0                       # What read queue length does an incoming req see
system.mem_ctrls.rdQLenPdf::24                      0                       # What read queue length does an incoming req see
system.mem_ctrls.rdQLenPdf::25                      0                       # What read queue length does an incoming req see
system.mem_ctrls.rdQLenPdf::26                      0                       # What read queue length does an incoming req see
system.mem_ctrls.rdQLenPdf::27                      0                       # What read queue length does an incoming req see
system.mem_ctrls.rdQLenPdf::28                      0                       # What read queue length does an incoming req see
system.mem_ctrls.rdQLenPdf::29                      0                       # What read queue length does an incoming req see
system.mem_ctrls.rdQLenPdf::30                      0                       # What read queue length does an incoming req see
system.mem_ctrls.rdQLenPdf::31                      0                       # What read queue length does an incoming req see
system.mem_ctrls.rdQLenPdf::32                      0                       # What read queue length does an incoming req see
system.mem_ctrls.rdQLenPdf::33                      0                       # What read queue length does an incoming req see
system.mem_ctrls.rdQLenPdf::34                      0                       # What read queue length does an incoming req see
system.mem_ctrls.rdQLenPdf::35                      0                       # What read queue length does an incoming req see
system.mem_ctrls.rdQLenPdf::36                      0                       # What read queue length does an incoming req see
system.mem_ctrls.rdQLenPdf::37                      0                       # What read queue length does an incoming req see
system.mem_ctrls.rdQLenPdf::38                      0                       # What read queue length does an incoming req see
system.mem_ctrls.rdQLenPdf::39                      0                       # What read queue length does an incoming req see
system.mem_ctrls.rdQLenPdf::40                      0                       # What read queue length does an incoming req see
system.mem_ctrls.rdQLenPdf::41                      0                       # What read queue length does an incoming req see
system.mem_ctrls.rdQLenPdf::42                      0                       # What read queue length does an incoming req see
system.mem_ctrls.rdQLenPdf::43                      0                       # What read queue length does an incoming req see
system.mem_ctrls.rdQLenPdf::44                      0                       # What read queue length does an incoming req see
system.mem_ctrls.rdQLenPdf::45                      0                       # What read queue length does an incoming req see
system.mem_ctrls.rdQLenPdf::46                      0                       # What read queue length does an incoming req see
system.mem_ctrls.rdQLenPdf::47                      0                       # What read queue length does an incoming req see
system.mem_ctrls.rdQLenPdf::48                      0                       # What read queue length does an incoming req see
system.mem_ctrls.rdQLenPdf::49                      0                       # What read queue length does an incoming req see
system.mem_ctrls.rdQLenPdf::50                      0                       # What read queue length does an incoming req see
system.mem_ctrls.rdQLenPdf::51                      0                       # What read queue length does an incoming req see
system.mem_ctrls.rdQLenPdf::52                      0                       # What read queue length does an incoming req see
system.mem_ctrls.rdQLenPdf::53                      0                       # What read queue length does an incoming req see
system.mem_ctrls.rdQLenPdf::54                      0                       # What read queue length does an incoming req see
system.mem_ctrls.rdQLenPdf::55                      0                       # What read queue length does an incoming req see
system.mem_ctrls.rdQLenPdf::56                      0                       # What read queue length does an incoming req see
system.mem_ctrls.rdQLenPdf::57                      0                       # What read queue length does an incoming req see
system.mem_ctrls.rdQLenPdf::58                      0                       # What read queue length does an incoming req see
system.mem_ctrls.rdQLenPdf::59                      0                       # What read queue length does an incoming req see
system.mem_ctrls.rdQLenPdf::60                      0                       # What read queue length does an incoming req see
system.mem_ctrls.rdQLenPdf::61                      0                       # What read queue length does an incoming req see
system.mem_ctrls.rdQLenPdf::62                      0                       # What read queue length does an incoming req see
system.mem_ctrls.rdQLenPdf::63                      0                       # What read queue length does an incoming req see
system.mem_ctrls.wrQLenPdf::0                       0                       # What write queue length does an incoming req see
system.mem_ctrls.wrQLenPdf::1                       0                       # What write queue length does an incoming req see
system.mem_ctrls.wrQLenPdf::2                       0                       # What write queue length does an incoming req see
system.mem_ctrls.wrQLenPdf::3                       0                       # What write queue length does an incoming req see
system.mem_ctrls.wrQLenPdf::4                       0                       # What write queue length does an incoming req see
system.mem_ctrls.wrQLenPdf::5                       0                       # What write queue length does an incoming req see
system.mem_ctrls.wrQLenPdf::6                       0                       # What write queue length does an incoming req see
system.mem_ctrls.wrQLenPdf::7                       0                       # What write queue length does an incoming req see
system.mem_ctrls.wrQLenPdf::8                       0                       # What write queue length does an incoming req see
system.mem_ctrls.wrQLenPdf::9                       0                       # What write queue length does an incoming req see
system.mem_ctrls.wrQLenPdf::10                      0                       # What write queue length does an incoming req see
system.mem_ctrls.wrQLenPdf::11                      0                       # What write queue length does an incoming req see
system.mem_ctrls.wrQLenPdf::12                      0                       # What write queue length does an incoming req see
system.mem_ctrls.wrQLenPdf::13                      0                       # What write queue length does an incoming req see
system.mem_ctrls.wrQLenPdf::14                      0                       # What write queue length does an incoming req see
system.mem_ctrls.wrQLenPdf::15                      0                       # What write queue length does an incoming req see
system.mem_ctrls.wrQLenPdf::16                      0                       # What write queue length does an incoming req see
system.mem_ctrls.wrQLenPdf::17                      0                       # What write queue length does an incoming req see
system.mem_ctrls.wrQLenPdf::18                      0                       # What write queue length does an incoming req see
system.mem_ctrls.wrQLenPdf::19                      0                       # What write queue length does an incoming req see
system.mem_ctrls.wrQLenPdf::20                      0                       # What write queue length does an incoming req see
system.mem_ctrls.wrQLenPdf::21                      0                       # What write queue length does an incoming req see
system.mem_ctrls.wrQLenPdf::22                      0                       # What write queue length does an incoming req see
system.mem_ctrls.wrQLenPdf::23                      0                       # What write queue length does an incoming req see
system.mem_ctrls.wrQLenPdf::24                      0                       # What write queue length does an incoming req see
system.mem_ctrls.wrQLenPdf::25                      0                       # What write queue length does an incoming req see
system.mem_ctrls.wrQLenPdf::26                      0                       # What write queue length does an incoming req see
system.mem_ctrls.wrQLenPdf::27                      0                       # What write queue length does an incoming req see
system.mem_ctrls.wrQLenPdf::28                      0                       # What write queue length does an incoming req see
system.mem_ctrls.wrQLenPdf::29                      0                       # What write queue length does an incoming req see
system.mem_ctrls.wrQLenPdf::30                      0                       # What write queue length does an incoming req see
system.mem_ctrls.wrQLenPdf::31                      0                       # What write queue length does an incoming req see
system.mem_ctrls.wrQLenPdf::32                      0                       # What write queue length does an incoming req see
system.mem_ctrls.wrQLenPdf::33                      0                       # What write queue length does an incoming req see
system.mem_ctrls.wrQLenPdf::34                      0                       # What write queue length does an incoming req see
system.mem_ctrls.wrQLenPdf::35                      0                       # What write queue length does an incoming req see
system.mem_ctrls.wrQLenPdf::36                      0                       # What write queue length does an incoming req see
system.mem_ctrls.wrQLenPdf::37                      0                       # What write queue length does an incoming req see
system.mem_ctrls.wrQLenPdf::38                      0                       # What write queue length does an incoming req see
system.mem_ctrls.wrQLenPdf::39                      0                       # What write queue length does an incoming req see
system.mem_ctrls.wrQLenPdf::40                      0                       # What write queue length does an incoming req see
system.mem_ctrls.wrQLenPdf::41                      0                       # What write queue length does an incoming req see
system.mem_ctrls.wrQLenPdf::42                      0                       # What write queue length does an incoming req see
system.mem_ctrls.wrQLenPdf::43                      0                       # What write queue length does an incoming req see
system.mem_ctrls.wrQLenPdf::44                      0                       # What write queue length does an incoming req see
system.mem_ctrls.wrQLenPdf::45                      0                       # What write queue length does an incoming req see
system.mem_ctrls.wrQLenPdf::46                      0                       # What write queue length does an incoming req see
system.mem_ctrls.wrQLenPdf::47                      0                       # What write queue length does an incoming req see
system.mem_ctrls.wrQLenPdf::48                      0                       # What write queue length does an incoming req see
system.mem_ctrls.wrQLenPdf::49                      0                       # What write queue length does an incoming req see
system.mem_ctrls.wrQLenPdf::50                      0                       # What write queue length does an incoming req see
system.mem_ctrls.wrQLenPdf::51                      0                       # What write queue length does an incoming req see
system.mem_ctrls.wrQLenPdf::52                      0                       # What write queue length does an incoming req see
system.mem_ctrls.wrQLenPdf::53                      0                       # What write queue length does an incoming req see
system.mem_ctrls.wrQLenPdf::54                      0                       # What write queue length does an incoming req see
system.mem_ctrls.wrQLenPdf::55                      0                       # What write queue length does an incoming req see
system.mem_ctrls.wrQLenPdf::56                      0                       # What write queue length does an incoming req see
system.mem_ctrls.wrQLenPdf::57                      0                       # What write queue length does an incoming req see
system.mem_ctrls.wrQLenPdf::58                      0                       # What write queue length does an incoming req see
system.mem_ctrls.wrQLenPdf::59                      0                       # What write queue length does an incoming req see
system.mem_ctrls.wrQLenPdf::60                      0                       # What write queue length does an incoming req see
system.mem_ctrls.wrQLenPdf::61                      0                       # What write queue length does an incoming req see
system.mem_ctrls.wrQLenPdf::62                      0                       # What write queue length does an incoming req see
system.mem_ctrls.wrQLenPdf::63                      0                       # What write queue length does an incoming req see
system.mem_ctrls.wrQLenPdf::64                      0                       # What write queue length does an incoming req see
system.mem_ctrls.wrQLenPdf::65                      0                       # What write queue length does an incoming req see
system.mem_ctrls.wrQLenPdf::66                      0                       # What write queue length does an incoming req see
system.mem_ctrls.wrQLenPdf::67                      0                       # What write queue length does an incoming req see
system.mem_ctrls.wrQLenPdf::68                      0                       # What write queue length does an incoming req see
system.mem_ctrls.wrQLenPdf::69                      0                       # What write queue length does an incoming req see
system.mem_ctrls.wrQLenPdf::70                      0                       # What write queue length does an incoming req see
system.mem_ctrls.wrQLenPdf::71                      0                       # What write queue length does an incoming req see
system.mem_ctrls.wrQLenPdf::72                      0                       # What write queue length does an incoming req see
system.mem_ctrls.wrQLenPdf::73                      0                       # What write queue length does an incoming req see
system.mem_ctrls.wrQLenPdf::74                      0                       # What write queue length does an incoming req see
system.mem_ctrls.wrQLenPdf::75                      0                       # What write queue length does an incoming req see
system.mem_ctrls.wrQLenPdf::76                      0                       # What write queue length does an incoming req see
system.mem_ctrls.wrQLenPdf::77                      0                       # What write queue length does an incoming req see
system.mem_ctrls.wrQLenPdf::78                      0                       # What write queue length does an incoming req see
system.mem_ctrls.wrQLenPdf::79                      0                       # What write queue length does an incoming req see
system.mem_ctrls.wrQLenPdf::80                      0                       # What write queue length does an incoming req see
system.mem_ctrls.wrQLenPdf::81                      0                       # What write queue length does an incoming req see
system.mem_ctrls.wrQLenPdf::82                      0                       # What write queue length does an incoming req see
system.mem_ctrls.wrQLenPdf::83                      0                       # What write queue length does an incoming req see
system.mem_ctrls.wrQLenPdf::84                      0                       # What write queue length does an incoming req see
system.mem_ctrls.wrQLenPdf::85                      0                       # What write queue length does an incoming req see
system.mem_ctrls.wrQLenPdf::86                      0                       # What write queue length does an incoming req see
system.mem_ctrls.wrQLenPdf::87                      0                       # What write queue length does an incoming req see
system.mem_ctrls.wrQLenPdf::88                      0                       # What write queue length does an incoming req see
system.mem_ctrls.wrQLenPdf::89                      0                       # What write queue length does an incoming req see
system.mem_ctrls.wrQLenPdf::90                      0                       # What write queue length does an incoming req see
system.mem_ctrls.wrQLenPdf::91                      0                       # What write queue length does an incoming req see
system.mem_ctrls.wrQLenPdf::92                      0                       # What write queue length does an incoming req see
system.mem_ctrls.wrQLenPdf::93                      0                       # What write queue length does an incoming req see
system.mem_ctrls.wrQLenPdf::94                      0                       # What write queue length does an incoming req see
system.mem_ctrls.wrQLenPdf::95                      0                       # What write queue length does an incoming req see
system.mem_ctrls.wrQLenPdf::96                      0                       # What write queue length does an incoming req see
system.mem_ctrls.wrQLenPdf::97                      0                       # What write queue length does an incoming req see
system.mem_ctrls.wrQLenPdf::98                      0                       # What write queue length does an incoming req see
system.mem_ctrls.wrQLenPdf::99                      0                       # What write queue length does an incoming req see
system.mem_ctrls.wrQLenPdf::100                     0                       # What write queue length does an incoming req see
system.mem_ctrls.wrQLenPdf::101                     0                       # What write queue length does an incoming req see
system.mem_ctrls.wrQLenPdf::102                     0                       # What write queue length does an incoming req see
system.mem_ctrls.wrQLenPdf::103                     0                       # What write queue length does an incoming req see
system.mem_ctrls.wrQLenPdf::104                     0                       # What write queue length does an incoming req see
system.mem_ctrls.wrQLenPdf::105                     0                       # What write queue length does an incoming req see
system.mem_ctrls.wrQLenPdf::106                     0                       # What write queue length does an incoming req see
system.mem_ctrls.wrQLenPdf::107                     0                       # What write queue length does an incoming req see
system.mem_ctrls.wrQLenPdf::108                     0                       # What write queue length does an incoming req see
system.mem_ctrls.wrQLenPdf::109                     0                       # What write queue length does an incoming req see
system.mem_ctrls.wrQLenPdf::110                     0                       # What write queue length does an incoming req see
system.mem_ctrls.wrQLenPdf::111                     0                       # What write queue length does an incoming req see
system.mem_ctrls.wrQLenPdf::112                     0                       # What write queue length does an incoming req see
system.mem_ctrls.wrQLenPdf::113                     0                       # What write queue length does an incoming req see
system.mem_ctrls.wrQLenPdf::114                     0                       # What write queue length does an incoming req see
system.mem_ctrls.wrQLenPdf::115                     0                       # What write queue length does an incoming req see
system.mem_ctrls.wrQLenPdf::116                     0                       # What write queue length does an incoming req see
system.mem_ctrls.wrQLenPdf::117                     0                       # What write queue length does an incoming req see
system.mem_ctrls.wrQLenPdf::118                     0                       # What write queue length does an incoming req see
system.mem_ctrls.wrQLenPdf::119                     0                       # What write queue length does an incoming req see
system.mem_ctrls.wrQLenPdf::120                     0                       # What write queue length does an incoming req see
system.mem_ctrls.wrQLenPdf::121                     0                       # What write queue length does an incoming req see
system.mem_ctrls.wrQLenPdf::122                     0                       # What write queue length does an incoming req see
system.mem_ctrls.wrQLenPdf::123                     0                       # What write queue length does an incoming req see
system.mem_ctrls.wrQLenPdf::124                     0                       # What write queue length does an incoming req see
system.mem_ctrls.wrQLenPdf::125                     0                       # What write queue length does an incoming req see
system.mem_ctrls.wrQLenPdf::126                     0                       # What write queue length does an incoming req see
system.mem_ctrls.wrQLenPdf::127                     0                       # What write queue length does an incoming req see
system.mem_ctrls.totQLat                            0                       # Total ticks spent queuing
system.mem_ctrls.totMemAccLat                       0                       # Total ticks spent from burst creation until serviced by the DRAM
system.mem_ctrls.totBusLat                          0                       # Total ticks spent in databus transfers
system.mem_ctrls.avgQLat                          nan                       # Average queueing delay per DRAM burst
system.mem_ctrls.avgBusLat                        nan                       # Average bus latency per DRAM burst
system.mem_ctrls.avgMemAccLat                     nan                       # Average memory access latency per DRAM burst
system.mem_ctrls.avgRdBW                         0.00                       # Average DRAM read bandwidth in MiByte/s
system.mem_ctrls.avgWrBW                         0.00                       # Average achieved write bandwidth in MiByte/s
system.mem_ctrls.avgRdBWSys                      0.00                       # Average system read bandwidth in MiByte/s
system.mem_ctrls.avgWrBWSys                      0.00                       # Average system write bandwidth in MiByte/s
system.mem_ctrls.peakBW                      19207.00                       # Theoretical peak bandwidth in MiByte/s
system.mem_ctrls.busUtil                         0.00                       # Data bus utilization in percentage
system.mem_ctrls.busUtilRead                     0.00                       # Data bus utilization in percentage for reads
system.mem_ctrls.busUtilWrite                    0.00                       # Data bus utilization in percentage for writes
system.mem_ctrls.avgRdQLen                       0.00                       # Average read queue length when enqueuing
system.mem_ctrls.avgWrQLen                       0.00                       # Average write queue length when enqueuing
system.mem_ctrls.readRowHits                        0                       # Number of row buffer hits during reads
system.mem_ctrls.writeRowHits                       0                       # Number of row buffer hits during writes
system.mem_ctrls.readRowHitRate                   nan                       # Row buffer hit rate for reads
system.mem_ctrls.writeRowHitRate                  nan                       # Row buffer hit rate for writes
system.mem_ctrls.avgGap                           nan                       # Average gap between requests
system.mem_ctrls.pageHitRate                      nan                       # Row buffer hit rate, read and write combined
system.mem_ctrls_0.actEnergy                        0                       # Energy for activate commands per rank (pJ)
system.mem_ctrls_0.preEnergy                        0                       # Energy for precharge commands per rank (pJ)
system.mem_ctrls_0.readEnergy                       0                       # Energy for read commands per rank (pJ)
system.mem_ctrls_0.writeEnergy                      0                       # Energy for write commands per rank (pJ)
system.mem_ctrls_0.refreshEnergy                    0                       # Energy for refresh commands per rank (pJ)
system.mem_ctrls_0.actBackEnergy                    0                       # Energy for active background per rank (pJ)
system.mem_ctrls_0.preBackEnergy         676383160854702.375000                       # Energy for precharge background per rank (pJ)
system.mem_ctrls_0.actPowerDownEnergy               0                       # Energy for active power-down per rank (pJ)
system.mem_ctrls_0.prePowerDownEnergy               0                       # Energy for precharge power-down per rank (pJ)
system.mem_ctrls_0.selfRefreshEnergy                0                       # Energy for self refresh per rank (pJ)
system.mem_ctrls_0.totalEnergy           676383160854702.375000                       # Total energy per rank (pJ)
system.mem_ctrls_0.averagePower            163.200000                       # Core power per rank (mW)
system.mem_ctrls_0.totalIdleTime                    0                       # Total Idle time Per DRAM Rank
system.mem_ctrls_0.memoryStateTime::IDLE 10891627716880500                       # Time in different power states
system.mem_ctrls_0.memoryStateTime::REF             0                       # Time in different power states
system.mem_ctrls_0.memoryStateTime::SREF            0                       # Time in different power states
system.mem_ctrls_0.memoryStateTime::PRE_PDN            0                       # Time in different power states
system.mem_ctrls_0.memoryStateTime::ACT             0                       # Time in different power states
system.mem_ctrls_0.memoryStateTime::ACT_PDN            0                       # Time in different power states
system.mem_ctrls_1.actEnergy                        0                       # Energy for activate commands per rank (pJ)
system.mem_ctrls_1.preEnergy                        0                       # Energy for precharge commands per rank (pJ)
system.mem_ctrls_1.readEnergy                       0                       # Energy for read commands per rank (pJ)
system.mem_ctrls_1.writeEnergy                      0                       # Energy for write commands per rank (pJ)
system.mem_ctrls_1.refreshEnergy                    0                       # Energy for refresh commands per rank (pJ)
system.mem_ctrls_1.actBackEnergy                    0                       # Energy for active background per rank (pJ)
system.mem_ctrls_1.preBackEnergy         676383160854702.375000                       # Energy for precharge background per rank (pJ)
system.mem_ctrls_1.actPowerDownEnergy               0                       # Energy for active power-down per rank (pJ)
system.mem_ctrls_1.prePowerDownEnergy               0                       # Energy for precharge power-down per rank (pJ)
system.mem_ctrls_1.selfRefreshEnergy                0                       # Energy for self refresh per rank (pJ)
[...]
system.tol2bus2.trans_dist::WriteResp            1183                       # Transaction distribution
system.tol2bus2.trans_dist::WritebackDirty       166442                       # Transaction distribution
system.tol2bus2.trans_dist::WritebackClean       329541                       # Transaction distribution
system.tol2bus2.trans_dist::CleanEvict         127279                       # Transaction distribution
system.tol2bus2.trans_dist::UpgradeReq           6420                       # Transaction distribution
system.tol2bus2.trans_dist::SCUpgradeReq         4853                       # Transaction distribution
system.tol2bus2.trans_dist::UpgradeResp         11273                       # Transaction distribution
system.tol2bus2.trans_dist::ReadExReq           52020                       # Transaction distribution
system.tol2bus2.trans_dist::ReadExResp          52020                       # Transaction distribution
system.tol2bus2.trans_dist::ReadCleanReq       331589                       # Transaction distribution
system.tol2bus2.trans_dist::ReadSharedReq       231434                       # Transaction distribution
system.tol2bus2.trans_dist::CleanSharedReq        49536                       # Transaction distribution
system.tol2bus2.trans_dist::CleanSharedResp        49536                       # Transaction distribution
system.tol2bus2.trans_dist::InvalidateReq        18495                       # Transaction distribution
system.tol2bus2.trans_dist::InvalidateResp        18495                       # Transaction distribution
system.tol2bus2.pkt_count_system.cpu08.icache.mem_side::system.l22.cpu_side       157105                       # Packet count per connected master and slave (bytes)
system.tol2bus2.pkt_count_system.cpu08.dcache.mem_side::system.l22.cpu_side       213042                       # Packet count per connected master and slave (bytes)
system.tol2bus2.pkt_count_system.cpu08.itb.walker.dma::system.l22.cpu_side        27384                       # Packet count per connected master and slave (bytes)
system.tol2bus2.pkt_count_system.cpu08.dtb.walker.dma::system.l22.cpu_side        16608                       # Packet count per connected master and slave (bytes)
system.tol2bus2.pkt_count_system.cpu09.icache.mem_side::system.l22.cpu_side       580450                       # Packet count per connected master and slave (bytes)
system.tol2bus2.pkt_count_system.cpu09.dcache.mem_side::system.l22.cpu_side       545350                       # Packet count per connected master and slave (bytes)
system.tol2bus2.pkt_count_system.cpu09.itb.walker.dma::system.l22.cpu_side        77876                       # Packet count per connected master and slave (bytes)
system.tol2bus2.pkt_count_system.cpu09.dtb.walker.dma::system.l22.cpu_side        52654                       # Packet count per connected master and slave (bytes)
system.tol2bus2.pkt_count_system.cpu10.icache.mem_side::system.l22.cpu_side       117559                       # Packet count per connected master and slave (bytes)
system.tol2bus2.pkt_count_system.cpu10.dcache.mem_side::system.l22.cpu_side       101220                       # Packet count per connected master and slave (bytes)
system.tol2bus2.pkt_count_system.cpu10.itb.walker.dma::system.l22.cpu_side        17384                       # Packet count per connected master and slave (bytes)
system.tol2bus2.pkt_count_system.cpu10.dtb.walker.dma::system.l22.cpu_side        12458                       # Packet count per connected master and slave (bytes)
system.tol2bus2.pkt_count_system.cpu11.icache.mem_side::system.l22.cpu_side       137605                       # Packet count per connected master and slave (bytes)
system.tol2bus2.pkt_count_system.cpu11.dcache.mem_side::system.l22.cpu_side       164401                       # Packet count per connected master and slave (bytes)
system.tol2bus2.pkt_count_system.cpu11.itb.walker.dma::system.l22.cpu_side        23358                       # Packet count per connected master and slave (bytes)
system.tol2bus2.pkt_count_system.cpu11.dtb.walker.dma::system.l22.cpu_side        14394                       # Packet count per connected master and slave (bytes)
system.tol2bus2.pkt_count::total              2258848                       # Packet count per connected master and slave (bytes)
system.tol2bus2.pkt_size_system.cpu08.icache.mem_side::system.l22.cpu_side      6692224                       # Cumulative packet size per connected master and slave (bytes)
system.tol2bus2.pkt_size_system.cpu08.dcache.mem_side::system.l22.cpu_side      6619032                       # Cumulative packet size per connected master and slave (bytes)
system.tol2bus2.pkt_size_system.cpu08.itb.walker.dma::system.l22.cpu_side       109536                       # Cumulative packet size per connected master and slave (bytes)
system.tol2bus2.pkt_size_system.cpu08.dtb.walker.dma::system.l22.cpu_side        66432                       # Cumulative packet size per connected master and slave (bytes)
system.tol2bus2.pkt_size_system.cpu09.icache.mem_side::system.l22.cpu_side     24754944                       # Cumulative packet size per connected master and slave (bytes)
system.tol2bus2.pkt_size_system.cpu09.dcache.mem_side::system.l22.cpu_side     14159589                       # Cumulative packet size per connected master and slave (bytes)
system.tol2bus2.pkt_size_system.cpu09.itb.walker.dma::system.l22.cpu_side       311504                       # Cumulative packet size per connected master and slave (bytes)
system.tol2bus2.pkt_size_system.cpu09.dtb.walker.dma::system.l22.cpu_side       210616                       # Cumulative packet size per connected master and slave (bytes)
system.tol2bus2.pkt_size_system.cpu10.icache.mem_side::system.l22.cpu_side      5004928                       # Cumulative packet size per connected master and slave (bytes)
system.tol2bus2.pkt_size_system.cpu10.dcache.mem_side::system.l22.cpu_side      2987201                       # Cumulative packet size per connected master and slave (bytes)
system.tol2bus2.pkt_size_system.cpu10.itb.walker.dma::system.l22.cpu_side        69536                       # Cumulative packet size per connected master and slave (bytes)
system.tol2bus2.pkt_size_system.cpu10.dtb.walker.dma::system.l22.cpu_side        49832                       # Cumulative packet size per connected master and slave (bytes)
system.tol2bus2.pkt_size_system.cpu11.icache.mem_side::system.l22.cpu_side      5860224                       # Cumulative packet size per connected master and slave (bytes)
system.tol2bus2.pkt_size_system.cpu11.dcache.mem_side::system.l22.cpu_side      5032892                       # Cumulative packet size per connected master and slave (bytes)
system.tol2bus2.pkt_size_system.cpu11.itb.walker.dma::system.l22.cpu_side        93432                       # Cumulative packet size per connected master and slave (bytes)
system.tol2bus2.pkt_size_system.cpu11.dtb.walker.dma::system.l22.cpu_side        57576                       # Cumulative packet size per connected master and slave (bytes)
system.tol2bus2.pkt_size::total              72079498                       # Cumulative packet size per connected master and slave (bytes)
system.tol2bus2.snoops                         471558                       # Total snoops (count)
system.tol2bus2.snoopTraffic                  2652224                       # Total snoop traffic (bytes)
system.tol2bus2.snoop_fanout::samples         1280820                       # Request fanout histogram
system.tol2bus2.snoop_fanout::mean           0.348177                       # Request fanout histogram
system.tol2bus2.snoop_fanout::stdev          0.843671                       # Request fanout histogram
system.tol2bus2.snoop_fanout::underflows            0      0.00%      0.00% # Request fanout histogram
system.tol2bus2.snoop_fanout::0               1045775     81.65%     81.65% # Request fanout histogram
system.tol2bus2.snoop_fanout::1                108816      8.50%     90.14% # Request fanout histogram
system.tol2bus2.snoop_fanout::2                 56456      4.41%     94.55% # Request fanout histogram
system.tol2bus2.snoop_fanout::3                 54868      4.28%     98.84% # Request fanout histogram
system.tol2bus2.snoop_fanout::4                 14905      1.16%    100.00% # Request fanout histogram
system.tol2bus2.snoop_fanout::5                     0      0.00%    100.00% # Request fanout histogram
system.tol2bus2.snoop_fanout::6                     0      0.00%    100.00% # Request fanout histogram
system.tol2bus2.snoop_fanout::7                     0      0.00%    100.00% # Request fanout histogram
system.tol2bus2.snoop_fanout::8                     0      0.00%    100.00% # Request fanout histogram
system.tol2bus2.snoop_fanout::overflows             0      0.00%    100.00% # Request fanout histogram
system.tol2bus2.snoop_fanout::min_value             0                       # Request fanout histogram
system.tol2bus2.snoop_fanout::max_value             4                       # Request fanout histogram
system.tol2bus2.snoop_fanout::total           1280820                       # Request fanout histogram
system.tol2bus2.directResponses                     0                       # auxiliar stat for checking how reasonable wireless model is
system.tol2bus3.snoop_filter.tot_requests     32368393                       # Total number of requests made to the snoop filter.
system.tol2bus3.snoop_filter.hit_single_requests     15022569                       # Number of requests hitting in the snoop filter with a single holder of the requested data.
system.tol2bus3.snoop_filter.hit_multi_requests      3563665                       # Number of requests hitting in the snoop filter with multiple (>1) holders of the requested data.
system.tol2bus3.snoop_filter.tot_snoops        361442                       # Total number of snoops made to the snoop filter.
system.tol2bus3.snoop_filter.hit_single_snoops       256380                       # Number of snoops hitting in the snoop filter with a single holder of the requested data.
system.tol2bus3.snoop_filter.hit_multi_snoops       105062                       # Number of snoops hitting in the snoop filter with multiple (>1) holders of the requested data.
system.tol2bus3.pwrStateResidencyTicks::UNDEFINED 10891627716880500                       # Cumulative time (in ticks) in various power states
system.tol2bus3.trans_dist::ReadReq           4794085                       # Transaction distribution
system.tol2bus3.trans_dist::ReadResp         20099650                       # Transaction distribution
system.tol2bus3.trans_dist::WriteReq             3050                       # Transaction distribution
system.tol2bus3.trans_dist::WriteResp            3050                       # Transaction distribution
system.tol2bus3.trans_dist::WritebackDirty      2046690                       # Transaction distribution
system.tol2bus3.trans_dist::WritebackClean     12264903                       # Transaction distribution
system.tol2bus3.trans_dist::CleanEvict        1817972                       # Transaction distribution
system.tol2bus3.trans_dist::UpgradeReq          28403                       # Transaction distribution
system.tol2bus3.trans_dist::SCUpgradeReq        21367                       # Transaction distribution
system.tol2bus3.trans_dist::UpgradeResp         49770                       # Transaction distribution
system.tol2bus3.trans_dist::ReadExReq          659725                       # Transaction distribution
system.tol2bus3.trans_dist::ReadExResp         659725                       # Transaction distribution
system.tol2bus3.trans_dist::ReadCleanReq     12266951                       # Transaction distribution
system.tol2bus3.trans_dist::ReadSharedReq      3038614                       # Transaction distribution
system.tol2bus3.trans_dist::InvalidateReq       212953                       # Transaction distribution
system.tol2bus3.trans_dist::InvalidateResp       212953                       # Transaction distribution
system.tol2bus3.pkt_count_system.cpu12.icache.mem_side::system.l23.cpu_side       119116                       # Packet count per connected master and slave (bytes)
system.tol2bus3.pkt_count_system.cpu12.dcache.mem_side::system.l23.cpu_side       118969                       # Packet count per connected master and slave (bytes)
system.tol2bus3.pkt_count_system.cpu12.itb.walker.dma::system.l23.cpu_side        19442                       # Packet count per connected master and slave (bytes)
system.tol2bus3.pkt_count_system.cpu12.dtb.walker.dma::system.l23.cpu_side         5184                       # Packet count per connected master and slave (bytes)
system.tol2bus3.pkt_count_system.cpu13.icache.mem_side::system.l23.cpu_side      1823521                       # Packet count per connected master and slave (bytes)
system.tol2bus3.pkt_count_system.cpu13.dcache.mem_side::system.l23.cpu_side       732614                       # Packet count per connected master and slave (bytes)
system.tol2bus3.pkt_count_system.cpu13.itb.walker.dma::system.l23.cpu_side       377486                       # Packet count per connected master and slave (bytes)
system.tol2bus3.pkt_count_system.cpu13.dtb.walker.dma::system.l23.cpu_side       187688                       # Packet count per connected master and slave (bytes)
system.tol2bus3.pkt_count_system.cpu14.icache.mem_side::system.l23.cpu_side     33838726                       # Packet count per connected master and slave (bytes)
system.tol2bus3.pkt_count_system.cpu14.dcache.mem_side::system.l23.cpu_side     10455735                       # Packet count per connected master and slave (bytes)
system.tol2bus3.pkt_count_system.cpu14.itb.walker.dma::system.l23.cpu_side      7013412                       # Packet count per connected master and slave (bytes)
system.tol2bus3.pkt_count_system.cpu14.dtb.walker.dma::system.l23.cpu_side      1708572                       # Packet count per connected master and slave (bytes)
system.tol2bus3.pkt_count_system.cpu15.icache.mem_side::system.l23.cpu_side      1017442                       # Packet count per connected master and slave (bytes)
system.tol2bus3.pkt_count_system.cpu15.dcache.mem_side::system.l23.cpu_side       495290                       # Packet count per connected master and slave (bytes)
system.tol2bus3.pkt_count_system.cpu15.itb.walker.dma::system.l23.cpu_side       190948                       # Packet count per connected master and slave (bytes)
system.tol2bus3.pkt_count_system.cpu15.dtb.walker.dma::system.l23.cpu_side        75716                       # Packet count per connected master and slave (bytes)
system.tol2bus3.pkt_count::total             58179861                       # Packet count per connected master and slave (bytes)
system.tol2bus3.pkt_size_system.cpu12.icache.mem_side::system.l23.cpu_side      5071360                       # Cumulative packet size per connected master and slave (bytes)
system.tol2bus3.pkt_size_system.cpu12.dcache.mem_side::system.l23.cpu_side      3534580                       # Cumulative packet size per connected master and slave (bytes)
system.tol2bus3.pkt_size_system.cpu12.itb.walker.dma::system.l23.cpu_side        77768                       # Cumulative packet size per connected master and slave (bytes)
system.tol2bus3.pkt_size_system.cpu12.dtb.walker.dma::system.l23.cpu_side        20736                       # Cumulative packet size per connected master and slave (bytes)
system.tol2bus3.pkt_size_system.cpu13.icache.mem_side::system.l23.cpu_side     77792640                       # Cumulative packet size per connected master and slave (bytes)
system.tol2bus3.pkt_size_system.cpu13.dcache.mem_side::system.l23.cpu_side     20907296                       # Cumulative packet size per connected master and slave (bytes)
system.tol2bus3.pkt_size_system.cpu13.itb.walker.dma::system.l23.cpu_side      1509944                       # Cumulative packet size per connected master and slave (bytes)
system.tol2bus3.pkt_size_system.cpu13.dtb.walker.dma::system.l23.cpu_side       750752                       # Cumulative packet size per connected master and slave (bytes)
system.tol2bus3.pkt_size_system.cpu14.icache.mem_side::system.l23.cpu_side   1443774720                       # Cumulative packet size per connected master and slave (bytes)
system.tol2bus3.pkt_size_system.cpu14.dcache.mem_side::system.l23.cpu_side    328416708                       # Cumulative packet size per connected master and slave (bytes)
system.tol2bus3.pkt_size_system.cpu14.itb.walker.dma::system.l23.cpu_side     28053648                       # Cumulative packet size per connected master and slave (bytes)
system.tol2bus3.pkt_size_system.cpu14.dtb.walker.dma::system.l23.cpu_side      6834288                       # Cumulative packet size per connected master and slave (bytes)
system.tol2bus3.pkt_size_system.cpu15.icache.mem_side::system.l23.cpu_side     43399936                       # Cumulative packet size per connected master and slave (bytes)
system.tol2bus3.pkt_size_system.cpu15.dcache.mem_side::system.l23.cpu_side     14854712                       # Cumulative packet size per connected master and slave (bytes)
system.tol2bus3.pkt_size_system.cpu15.itb.walker.dma::system.l23.cpu_side       763792                       # Cumulative packet size per connected master and slave (bytes)
system.tol2bus3.pkt_size_system.cpu15.dtb.walker.dma::system.l23.cpu_side       302864                       # Cumulative packet size per connected master and slave (bytes)
system.tol2bus3.pkt_size::total            1976065744                       # Cumulative packet size per connected master and slave (bytes)
system.tol2bus3.snoops                        1338798                       # Total snoops (count)
system.tol2bus3.snoopTraffic                 14242688                       # Total snoop traffic (bytes)
system.tol2bus3.snoop_fanout::samples        22321556                       # Request fanout histogram
system.tol2bus3.snoop_fanout::mean           0.205941                       # Request fanout histogram
system.tol2bus3.snoop_fanout::stdev          0.613271                       # Request fanout histogram
system.tol2bus3.snoop_fanout::underflows            0      0.00%      0.00% # Request fanout histogram
system.tol2bus3.snoop_fanout::0              19533133     87.51%     87.51% # Request fanout histogram
system.tol2bus3.snoop_fanout::1               1513461      6.78%     94.29% # Request fanout histogram
system.tol2bus3.snoop_fanout::2                771888      3.46%     97.75% # Request fanout histogram
system.tol2bus3.snoop_fanout::3                472620      2.12%     99.86% # Request fanout histogram
system.tol2bus3.snoop_fanout::4                 30454      0.14%    100.00% # Request fanout histogram
system.tol2bus3.snoop_fanout::5                     0      0.00%    100.00% # Request fanout histogram
system.tol2bus3.snoop_fanout::6                     0      0.00%    100.00% # Request fanout histogram
system.tol2bus3.snoop_fanout::7                     0      0.00%    100.00% # Request fanout histogram
system.tol2bus3.snoop_fanout::8                     0      0.00%    100.00% # Request fanout histogram
system.tol2bus3.snoop_fanout::overflows             0      0.00%    100.00% # Request fanout histogram
system.tol2bus3.snoop_fanout::min_value             0                       # Request fanout histogram
system.tol2bus3.snoop_fanout::max_value             4                       # Request fanout histogram
system.tol2bus3.snoop_fanout::total          22321556                       # Request fanout histogram
system.tol2bus3.directResponses                     0                       # auxiliar stat for checking how reasonable wireless model is

---------- End Simulation Statistics   ----------
