
---------- Begin Simulation Statistics ----------
sim_seconds                              23776.241762                       # Number of seconds simulated
sim_ticks                                23776241761816000                       # Number of ticks simulated
final_tick                               30523364816597000                       # Number of ticks from beginning of simulation (restored from checkpoints and never reset)
sim_freq                                 1000000000000                       # Frequency of simulated ticks
host_inst_rate                                2376619                       # Simulator instruction rate (inst/s)
host_op_rate                                  2678509                       # Simulator op (including micro ops) rate (op/s)
host_tick_rate                           3416887027004                       # Simulator tick rate (ticks/s)
host_mem_usage                                5045900                       # Number of bytes of host memory used
host_seconds                                  6958.45                       # Real time elapsed on the host
sim_insts                                 16537587259                       # Number of instructions simulated
sim_ops                                   18638276982                       # Number of ops (including micro ops) simulated
system.voltage_domain.voltage                       1                       # Voltage in Volts
system.clk_domain.clock                           625                       # Clock period in ticks
system.bootmem.pwrStateResidencyTicks::UNDEFINED 30523364816597000                       # Cumulative time (in ticks) in various power states
system.mem_ctrls.pwrStateResidencyTicks::UNDEFINED 30523364816597000                       # Cumulative time (in ticks) in various power states
system.mem_ctrls.bytes_read::cpu00.dtb.walker      1577472                       # Number of bytes read from this memory
system.mem_ctrls.bytes_read::cpu00.itb.walker       165568                       # Number of bytes read from this memory
system.mem_ctrls.bytes_read::cpu00.inst       4675136                       # Number of bytes read from this memory
system.mem_ctrls.bytes_read::cpu00.data     170660864                       # Number of bytes read from this memory
system.mem_ctrls.bytes_read::cpu01.dtb.walker        39104                       # Number of bytes read from this memory
system.mem_ctrls.bytes_read::cpu01.itb.walker        24832                       # Number of bytes read from this memory
system.mem_ctrls.bytes_read::cpu01.inst       2071168                       # Number of bytes read from this memory
system.mem_ctrls.bytes_read::cpu01.data       4662528                       # Number of bytes read from this memory
system.mem_ctrls.bytes_read::cpu02.dtb.walker       126976                       # Number of bytes read from this memory
system.mem_ctrls.bytes_read::cpu02.itb.walker        38080                       # Number of bytes read from this memory
system.mem_ctrls.bytes_read::cpu02.inst       3884224                       # Number of bytes read from this memory
system.mem_ctrls.bytes_read::cpu02.data      15836288                       # Number of bytes read from this memory
system.mem_ctrls.bytes_read::cpu03.dtb.walker        44032                       # Number of bytes read from this memory
system.mem_ctrls.bytes_read::cpu03.itb.walker        30848                       # Number of bytes read from this memory
system.mem_ctrls.bytes_read::cpu03.inst       2760384                       # Number of bytes read from this memory
system.mem_ctrls.bytes_read::cpu03.data       5953792                       # Number of bytes read from this memory
system.mem_ctrls.bytes_read::cpu04.dtb.walker        83776                       # Number of bytes read from this memory
system.mem_ctrls.bytes_read::cpu04.itb.walker        22912                       # Number of bytes read from this memory
system.mem_ctrls.bytes_read::cpu04.inst       3280000                       # Number of bytes read from this memory
system.mem_ctrls.bytes_read::cpu04.data       3097280                       # Number of bytes read from this memory
system.mem_ctrls.bytes_read::cpu05.dtb.walker         9088                       # Number of bytes read from this memory
system.mem_ctrls.bytes_read::cpu05.itb.walker         8832                       # Number of bytes read from this memory
system.mem_ctrls.bytes_read::cpu05.inst        755520                       # Number of bytes read from this memory
system.mem_ctrls.bytes_read::cpu05.data       1040192                       # Number of bytes read from this memory
system.mem_ctrls.bytes_read::cpu06.dtb.walker        22720                       # Number of bytes read from this memory
system.mem_ctrls.bytes_read::cpu06.itb.walker        14720                       # Number of bytes read from this memory
system.mem_ctrls.bytes_read::cpu06.inst       1427904                       # Number of bytes read from this memory
system.mem_ctrls.bytes_read::cpu06.data       3040448                       # Number of bytes read from this memory
system.mem_ctrls.bytes_read::cpu07.dtb.walker        26880                       # Number of bytes read from this memory
system.mem_ctrls.bytes_read::cpu07.itb.walker        15680                       # Number of bytes read from this memory
system.mem_ctrls.bytes_read::cpu07.inst       1333440                       # Number of bytes read from this memory
system.mem_ctrls.bytes_read::cpu07.data       2813888                       # Number of bytes read from this memory
system.mem_ctrls.bytes_read::cpu08.dtb.walker      4241600                       # Number of bytes read from this memory
system.mem_ctrls.bytes_read::cpu08.itb.walker       132736                       # Number of bytes read from this memory
system.mem_ctrls.bytes_read::cpu08.inst      13790848                       # Number of bytes read from this memory
system.mem_ctrls.bytes_read::cpu08.data     179982592                       # Number of bytes read from this memory
system.mem_ctrls.bytes_read::cpu09.dtb.walker        19456                       # Number of bytes read from this memory
system.mem_ctrls.bytes_read::cpu09.itb.walker        13312                       # Number of bytes read from this memory
system.mem_ctrls.bytes_read::cpu09.inst       1278208                       # Number of bytes read from this memory
system.mem_ctrls.bytes_read::cpu09.data       2067264                       # Number of bytes read from this memory
system.mem_ctrls.bytes_read::cpu10.dtb.walker         6400                       # Number of bytes read from this memory
system.mem_ctrls.bytes_read::cpu10.itb.walker         4928                       # Number of bytes read from this memory
system.mem_ctrls.bytes_read::cpu10.inst        504256                       # Number of bytes read from this memory
system.mem_ctrls.bytes_read::cpu10.data        521792                       # Number of bytes read from this memory
system.mem_ctrls.bytes_read::cpu11.dtb.walker        19968                       # Number of bytes read from this memory
system.mem_ctrls.bytes_read::cpu11.itb.walker        13760                       # Number of bytes read from this memory
system.mem_ctrls.bytes_read::cpu11.inst       1334784                       # Number of bytes read from this memory
system.mem_ctrls.bytes_read::cpu11.data       2837632                       # Number of bytes read from this memory
system.mem_ctrls.bytes_read::cpu12.dtb.walker        18816                       # Number of bytes read from this memory
system.mem_ctrls.bytes_read::cpu12.itb.walker        13888                       # Number of bytes read from this memory
system.mem_ctrls.bytes_read::cpu12.inst       1370304                       # Number of bytes read from this memory
system.mem_ctrls.bytes_read::cpu12.data       2846784                       # Number of bytes read from this memory
system.mem_ctrls.bytes_read::cpu13.dtb.walker       187392                       # Number of bytes read from this memory
system.mem_ctrls.bytes_read::cpu13.itb.walker        47808                       # Number of bytes read from this memory
system.mem_ctrls.bytes_read::cpu13.inst       6016320                       # Number of bytes read from this memory
system.mem_ctrls.bytes_read::cpu13.data       5221760                       # Number of bytes read from this memory
system.mem_ctrls.bytes_read::cpu14.dtb.walker      5372480                       # Number of bytes read from this memory
system.mem_ctrls.bytes_read::cpu14.itb.walker      3898688                       # Number of bytes read from this memory
system.mem_ctrls.bytes_read::cpu14.inst      76928000                       # Number of bytes read from this memory
system.mem_ctrls.bytes_read::cpu14.data      68293248                       # Number of bytes read from this memory
system.mem_ctrls.bytes_read::cpu15.dtb.walker        55296                       # Number of bytes read from this memory
system.mem_ctrls.bytes_read::cpu15.itb.walker        17472                       # Number of bytes read from this memory
system.mem_ctrls.bytes_read::cpu15.inst       2057664                       # Number of bytes read from this memory
system.mem_ctrls.bytes_read::cpu15.data       1921472                       # Number of bytes read from this memory
system.mem_ctrls.bytes_read::total          610581504                       # Number of bytes read from this memory
system.mem_ctrls.bytes_inst_read::cpu00.inst      4675136                       # Number of instructions bytes read from this memory
system.mem_ctrls.bytes_inst_read::cpu01.inst      2071168                       # Number of instructions bytes read from this memory
system.mem_ctrls.bytes_inst_read::cpu02.inst      3884224                       # Number of instructions bytes read from this memory
system.mem_ctrls.bytes_inst_read::cpu03.inst      2760384                       # Number of instructions bytes read from this memory
system.mem_ctrls.bytes_inst_read::cpu04.inst      3280000                       # Number of instructions bytes read from this memory
system.mem_ctrls.bytes_inst_read::cpu05.inst       755520                       # Number of instructions bytes read from this memory
system.mem_ctrls.bytes_inst_read::cpu06.inst      1427904                       # Number of instructions bytes read from this memory
system.mem_ctrls.bytes_inst_read::cpu07.inst      1333440                       # Number of instructions bytes read from this memory
system.mem_ctrls.bytes_inst_read::cpu08.inst     13790848                       # Number of instructions bytes read from this memory
system.mem_ctrls.bytes_inst_read::cpu09.inst      1278208                       # Number of instructions bytes read from this memory
system.mem_ctrls.bytes_inst_read::cpu10.inst       504256                       # Number of instructions bytes read from this memory
system.mem_ctrls.bytes_inst_read::cpu11.inst      1334784                       # Number of instructions bytes read from this memory
system.mem_ctrls.bytes_inst_read::cpu12.inst      1370304                       # Number of instructions bytes read from this memory
system.mem_ctrls.bytes_inst_read::cpu13.inst      6016320                       # Number of instructions bytes read from this memory
system.mem_ctrls.bytes_inst_read::cpu14.inst     76928000                       # Number of instructions bytes read from this memory
system.mem_ctrls.bytes_inst_read::cpu15.inst      2057664                       # Number of instructions bytes read from this memory
system.mem_ctrls.bytes_inst_read::total     123468160                       # Number of instructions bytes read from this memory
system.mem_ctrls.bytes_written::writebacks    213716416                       # Number of bytes written to this memory
system.mem_ctrls.bytes_written::total       213716416                       # Number of bytes written to this memory
system.mem_ctrls.num_reads::cpu00.dtb.walker        24648                       # Number of read requests responded to by this memory
system.mem_ctrls.num_reads::cpu00.itb.walker         2587                       # Number of read requests responded to by this memory
system.mem_ctrls.num_reads::cpu00.inst          73049                       # Number of read requests responded to by this memory
system.mem_ctrls.num_reads::cpu00.data        2666576                       # Number of read requests responded to by this memory
system.mem_ctrls.num_reads::cpu01.dtb.walker          611                       # Number of read requests responded to by this memory
system.mem_ctrls.num_reads::cpu01.itb.walker          388                       # Number of read requests responded to by this memory
system.mem_ctrls.num_reads::cpu01.inst          32362                       # Number of read requests responded to by this memory
system.mem_ctrls.num_reads::cpu01.data          72852                       # Number of read requests responded to by this memory
system.mem_ctrls.num_reads::cpu02.dtb.walker         1984                       # Number of read requests responded to by this memory
system.mem_ctrls.num_reads::cpu02.itb.walker          595                       # Number of read requests responded to by this memory
system.mem_ctrls.num_reads::cpu02.inst          60691                       # Number of read requests responded to by this memory
system.mem_ctrls.num_reads::cpu02.data         247442                       # Number of read requests responded to by this memory
system.mem_ctrls.num_reads::cpu03.dtb.walker          688                       # Number of read requests responded to by this memory
system.mem_ctrls.num_reads::cpu03.itb.walker          482                       # Number of read requests responded to by this memory
system.mem_ctrls.num_reads::cpu03.inst          43131                       # Number of read requests responded to by this memory
system.mem_ctrls.num_reads::cpu03.data          93028                       # Number of read requests responded to by this memory
system.mem_ctrls.num_reads::cpu04.dtb.walker         1309                       # Number of read requests responded to by this memory
system.mem_ctrls.num_reads::cpu04.itb.walker          358                       # Number of read requests responded to by this memory
system.mem_ctrls.num_reads::cpu04.inst          51250                       # Number of read requests responded to by this memory
system.mem_ctrls.num_reads::cpu04.data          48395                       # Number of read requests responded to by this memory
system.mem_ctrls.num_reads::cpu05.dtb.walker          142                       # Number of read requests responded to by this memory
system.mem_ctrls.num_reads::cpu05.itb.walker          138                       # Number of read requests responded to by this memory
system.mem_ctrls.num_reads::cpu05.inst          11805                       # Number of read requests responded to by this memory
system.mem_ctrls.num_reads::cpu05.data          16253                       # Number of read requests responded to by this memory
system.mem_ctrls.num_reads::cpu06.dtb.walker          355                       # Number of read requests responded to by this memory
system.mem_ctrls.num_reads::cpu06.itb.walker          230                       # Number of read requests responded to by this memory
system.mem_ctrls.num_reads::cpu06.inst          22311                       # Number of read requests responded to by this memory
system.mem_ctrls.num_reads::cpu06.data          47507                       # Number of read requests responded to by this memory
system.mem_ctrls.num_reads::cpu07.dtb.walker          420                       # Number of read requests responded to by this memory
system.mem_ctrls.num_reads::cpu07.itb.walker          245                       # Number of read requests responded to by this memory
system.mem_ctrls.num_reads::cpu07.inst          20835                       # Number of read requests responded to by this memory
system.mem_ctrls.num_reads::cpu07.data          43967                       # Number of read requests responded to by this memory
system.mem_ctrls.num_reads::cpu08.dtb.walker        66275                       # Number of read requests responded to by this memory
system.mem_ctrls.num_reads::cpu08.itb.walker         2074                       # Number of read requests responded to by this memory
system.mem_ctrls.num_reads::cpu08.inst         215482                       # Number of read requests responded to by this memory
system.mem_ctrls.num_reads::cpu08.data        2812228                       # Number of read requests responded to by this memory
system.mem_ctrls.num_reads::cpu09.dtb.walker          304                       # Number of read requests responded to by this memory
system.mem_ctrls.num_reads::cpu09.itb.walker          208                       # Number of read requests responded to by this memory
system.mem_ctrls.num_reads::cpu09.inst          19972                       # Number of read requests responded to by this memory
system.mem_ctrls.num_reads::cpu09.data          32301                       # Number of read requests responded to by this memory
system.mem_ctrls.num_reads::cpu10.dtb.walker          100                       # Number of read requests responded to by this memory
system.mem_ctrls.num_reads::cpu10.itb.walker           77                       # Number of read requests responded to by this memory
system.mem_ctrls.num_reads::cpu10.inst           7879                       # Number of read requests responded to by this memory
system.mem_ctrls.num_reads::cpu10.data           8153                       # Number of read requests responded to by this memory
system.mem_ctrls.num_reads::cpu11.dtb.walker          312                       # Number of read requests responded to by this memory
system.mem_ctrls.num_reads::cpu11.itb.walker          215                       # Number of read requests responded to by this memory
system.mem_ctrls.num_reads::cpu11.inst          20856                       # Number of read requests responded to by this memory
system.mem_ctrls.num_reads::cpu11.data          44338                       # Number of read requests responded to by this memory
system.mem_ctrls.num_reads::cpu12.dtb.walker          294                       # Number of read requests responded to by this memory
system.mem_ctrls.num_reads::cpu12.itb.walker          217                       # Number of read requests responded to by this memory
system.mem_ctrls.num_reads::cpu12.inst          21411                       # Number of read requests responded to by this memory
system.mem_ctrls.num_reads::cpu12.data          44481                       # Number of read requests responded to by this memory
system.mem_ctrls.num_reads::cpu13.dtb.walker         2928                       # Number of read requests responded to by this memory
system.mem_ctrls.num_reads::cpu13.itb.walker          747                       # Number of read requests responded to by this memory
system.mem_ctrls.num_reads::cpu13.inst          94005                       # Number of read requests responded to by this memory
system.mem_ctrls.num_reads::cpu13.data          81590                       # Number of read requests responded to by this memory
system.mem_ctrls.num_reads::cpu14.dtb.walker        83945                       # Number of read requests responded to by this memory
system.mem_ctrls.num_reads::cpu14.itb.walker        60917                       # Number of read requests responded to by this memory
system.mem_ctrls.num_reads::cpu14.inst        1202000                       # Number of read requests responded to by this memory
system.mem_ctrls.num_reads::cpu14.data        1067082                       # Number of read requests responded to by this memory
system.mem_ctrls.num_reads::cpu15.dtb.walker          864                       # Number of read requests responded to by this memory
system.mem_ctrls.num_reads::cpu15.itb.walker          273                       # Number of read requests responded to by this memory
system.mem_ctrls.num_reads::cpu15.inst          32151                       # Number of read requests responded to by this memory
system.mem_ctrls.num_reads::cpu15.data          30023                       # Number of read requests responded to by this memory
system.mem_ctrls.num_reads::total             9540336                       # Number of read requests responded to by this memory
system.mem_ctrls.num_writes::writebacks       3339319                       # Number of write requests responded to by this memory
system.mem_ctrls.num_writes::total            3339319                       # Number of write requests responded to by this memory
system.mem_ctrls.bw_read::cpu00.dtb.walker           66                       # Total read bandwidth from this memory (bytes/s)
system.mem_ctrls.bw_read::cpu00.itb.walker            7                       # Total read bandwidth from this memory (bytes/s)
system.mem_ctrls.bw_read::cpu00.inst              197                       # Total read bandwidth from this memory (bytes/s)
system.mem_ctrls.bw_read::cpu00.data             7178                       # Total read bandwidth from this memory (bytes/s)
system.mem_ctrls.bw_read::cpu01.dtb.walker            2                       # Total read bandwidth from this memory (bytes/s)
system.mem_ctrls.bw_read::cpu01.itb.walker            1                       # Total read bandwidth from this memory (bytes/s)
system.mem_ctrls.bw_read::cpu01.inst               87                       # Total read bandwidth from this memory (bytes/s)
system.mem_ctrls.bw_read::cpu01.data              196                       # Total read bandwidth from this memory (bytes/s)
system.mem_ctrls.bw_read::cpu02.dtb.walker            5                       # Total read bandwidth from this memory (bytes/s)
system.mem_ctrls.bw_read::cpu02.itb.walker            2                       # Total read bandwidth from this memory (bytes/s)
system.mem_ctrls.bw_read::cpu02.inst              163                       # Total read bandwidth from this memory (bytes/s)
system.mem_ctrls.bw_read::cpu02.data              666                       # Total read bandwidth from this memory (bytes/s)
system.mem_ctrls.bw_read::cpu03.dtb.walker            2                       # Total read bandwidth from this memory (bytes/s)
system.mem_ctrls.bw_read::cpu03.itb.walker            1                       # Total read bandwidth from this memory (bytes/s)
system.mem_ctrls.bw_read::cpu03.inst              116                       # Total read bandwidth from this memory (bytes/s)
system.mem_ctrls.bw_read::cpu03.data              250                       # Total read bandwidth from this memory (bytes/s)
system.mem_ctrls.bw_read::cpu04.dtb.walker            4                       # Total read bandwidth from this memory (bytes/s)
system.mem_ctrls.bw_read::cpu04.itb.walker            1                       # Total read bandwidth from this memory (bytes/s)
system.mem_ctrls.bw_read::cpu04.inst              138                       # Total read bandwidth from this memory (bytes/s)
system.mem_ctrls.bw_read::cpu04.data              130                       # Total read bandwidth from this memory (bytes/s)
system.mem_ctrls.bw_read::cpu05.dtb.walker            0                       # Total read bandwidth from this memory (bytes/s)
system.mem_ctrls.bw_read::cpu05.itb.walker            0                       # Total read bandwidth from this memory (bytes/s)
system.mem_ctrls.bw_read::cpu05.inst               32                       # Total read bandwidth from this memory (bytes/s)
system.mem_ctrls.bw_read::cpu05.data               44                       # Total read bandwidth from this memory (bytes/s)
system.mem_ctrls.bw_read::cpu06.dtb.walker            1                       # Total read bandwidth from this memory (bytes/s)
system.mem_ctrls.bw_read::cpu06.itb.walker            1                       # Total read bandwidth from this memory (bytes/s)
system.mem_ctrls.bw_read::cpu06.inst               60                       # Total read bandwidth from this memory (bytes/s)
system.mem_ctrls.bw_read::cpu06.data              128                       # Total read bandwidth from this memory (bytes/s)
system.mem_ctrls.bw_read::cpu07.dtb.walker            1                       # Total read bandwidth from this memory (bytes/s)
system.mem_ctrls.bw_read::cpu07.itb.walker            1                       # Total read bandwidth from this memory (bytes/s)
system.mem_ctrls.bw_read::cpu07.inst               56                       # Total read bandwidth from this memory (bytes/s)
system.mem_ctrls.bw_read::cpu07.data              118                       # Total read bandwidth from this memory (bytes/s)
system.mem_ctrls.bw_read::cpu08.dtb.walker          178                       # Total read bandwidth from this memory (bytes/s)
system.mem_ctrls.bw_read::cpu08.itb.walker            6                       # Total read bandwidth from this memory (bytes/s)
system.mem_ctrls.bw_read::cpu08.inst              580                       # Total read bandwidth from this memory (bytes/s)
system.mem_ctrls.bw_read::cpu08.data             7570                       # Total read bandwidth from this memory (bytes/s)
system.mem_ctrls.bw_read::cpu09.dtb.walker            1                       # Total read bandwidth from this memory (bytes/s)
system.mem_ctrls.bw_read::cpu09.itb.walker            1                       # Total read bandwidth from this memory (bytes/s)
system.mem_ctrls.bw_read::cpu09.inst               54                       # Total read bandwidth from this memory (bytes/s)
system.mem_ctrls.bw_read::cpu09.data               87                       # Total read bandwidth from this memory (bytes/s)
system.mem_ctrls.bw_read::cpu10.dtb.walker            0                       # Total read bandwidth from this memory (bytes/s)
system.mem_ctrls.bw_read::cpu10.itb.walker            0                       # Total read bandwidth from this memory (bytes/s)
system.mem_ctrls.bw_read::cpu10.inst               21                       # Total read bandwidth from this memory (bytes/s)
system.mem_ctrls.bw_read::cpu10.data               22                       # Total read bandwidth from this memory (bytes/s)
system.mem_ctrls.bw_read::cpu11.dtb.walker            1                       # Total read bandwidth from this memory (bytes/s)
system.mem_ctrls.bw_read::cpu11.itb.walker            1                       # Total read bandwidth from this memory (bytes/s)
system.mem_ctrls.bw_read::cpu11.inst               56                       # Total read bandwidth from this memory (bytes/s)
system.mem_ctrls.bw_read::cpu11.data              119                       # Total read bandwidth from this memory (bytes/s)
system.mem_ctrls.bw_read::cpu12.dtb.walker            1                       # Total read bandwidth from this memory (bytes/s)
system.mem_ctrls.bw_read::cpu12.itb.walker            1                       # Total read bandwidth from this memory (bytes/s)
system.mem_ctrls.bw_read::cpu12.inst               58                       # Total read bandwidth from this memory (bytes/s)
system.mem_ctrls.bw_read::cpu12.data              120                       # Total read bandwidth from this memory (bytes/s)
system.mem_ctrls.bw_read::cpu13.dtb.walker            8                       # Total read bandwidth from this memory (bytes/s)
system.mem_ctrls.bw_read::cpu13.itb.walker            2                       # Total read bandwidth from this memory (bytes/s)
system.mem_ctrls.bw_read::cpu13.inst              253                       # Total read bandwidth from this memory (bytes/s)
system.mem_ctrls.bw_read::cpu13.data              220                       # Total read bandwidth from this memory (bytes/s)
system.mem_ctrls.bw_read::cpu14.dtb.walker          226                       # Total read bandwidth from this memory (bytes/s)
system.mem_ctrls.bw_read::cpu14.itb.walker          164                       # Total read bandwidth from this memory (bytes/s)
system.mem_ctrls.bw_read::cpu14.inst             3235                       # Total read bandwidth from this memory (bytes/s)
system.mem_ctrls.bw_read::cpu14.data             2872                       # Total read bandwidth from this memory (bytes/s)
system.mem_ctrls.bw_read::cpu15.dtb.walker            2                       # Total read bandwidth from this memory (bytes/s)
system.mem_ctrls.bw_read::cpu15.itb.walker            1                       # Total read bandwidth from this memory (bytes/s)
system.mem_ctrls.bw_read::cpu15.inst               87                       # Total read bandwidth from this memory (bytes/s)
system.mem_ctrls.bw_read::cpu15.data               81                       # Total read bandwidth from this memory (bytes/s)
system.mem_ctrls.bw_read::total                 25680                       # Total read bandwidth from this memory (bytes/s)
system.mem_ctrls.bw_inst_read::cpu00.inst          197                       # Instruction read bandwidth from this memory (bytes/s)
system.mem_ctrls.bw_inst_read::cpu01.inst           87                       # Instruction read bandwidth from this memory (bytes/s)
system.mem_ctrls.bw_inst_read::cpu02.inst          163                       # Instruction read bandwidth from this memory (bytes/s)
system.mem_ctrls.bw_inst_read::cpu03.inst          116                       # Instruction read bandwidth from this memory (bytes/s)
system.mem_ctrls.bw_inst_read::cpu04.inst          138                       # Instruction read bandwidth from this memory (bytes/s)
system.mem_ctrls.bw_inst_read::cpu05.inst           32                       # Instruction read bandwidth from this memory (bytes/s)
system.mem_ctrls.bw_inst_read::cpu06.inst           60                       # Instruction read bandwidth from this memory (bytes/s)
system.mem_ctrls.bw_inst_read::cpu07.inst           56                       # Instruction read bandwidth from this memory (bytes/s)
system.mem_ctrls.bw_inst_read::cpu08.inst          580                       # Instruction read bandwidth from this memory (bytes/s)
system.mem_ctrls.bw_inst_read::cpu09.inst           54                       # Instruction read bandwidth from this memory (bytes/s)
system.mem_ctrls.bw_inst_read::cpu10.inst           21                       # Instruction read bandwidth from this memory (bytes/s)
system.mem_ctrls.bw_inst_read::cpu11.inst           56                       # Instruction read bandwidth from this memory (bytes/s)
system.mem_ctrls.bw_inst_read::cpu12.inst           58                       # Instruction read bandwidth from this memory (bytes/s)
system.mem_ctrls.bw_inst_read::cpu13.inst          253                       # Instruction read bandwidth from this memory (bytes/s)
system.mem_ctrls.bw_inst_read::cpu14.inst         3235                       # Instruction read bandwidth from this memory (bytes/s)
system.mem_ctrls.bw_inst_read::cpu15.inst           87                       # Instruction read bandwidth from this memory (bytes/s)
system.mem_ctrls.bw_inst_read::total             5193                       # Instruction read bandwidth from this memory (bytes/s)
system.mem_ctrls.bw_write::writebacks            8989                       # Write bandwidth from this memory (bytes/s)
system.mem_ctrls.bw_write::total                 8989                       # Write bandwidth from this memory (bytes/s)
system.mem_ctrls.bw_total::writebacks            8989                       # Total bandwidth to/from this memory (bytes/s)
system.mem_ctrls.bw_total::cpu00.dtb.walker           66                       # Total bandwidth to/from this memory (bytes/s)
system.mem_ctrls.bw_total::cpu00.itb.walker            7                       # Total bandwidth to/from this memory (bytes/s)
system.mem_ctrls.bw_total::cpu00.inst             197                       # Total bandwidth to/from this memory (bytes/s)
system.mem_ctrls.bw_total::cpu00.data            7178                       # Total bandwidth to/from this memory (bytes/s)
system.mem_ctrls.bw_total::cpu01.dtb.walker            2                       # Total bandwidth to/from this memory (bytes/s)
system.mem_ctrls.bw_total::cpu01.itb.walker            1                       # Total bandwidth to/from this memory (bytes/s)
system.mem_ctrls.bw_total::cpu01.inst              87                       # Total bandwidth to/from this memory (bytes/s)
system.mem_ctrls.bw_total::cpu01.data             196                       # Total bandwidth to/from this memory (bytes/s)
system.mem_ctrls.bw_total::cpu02.dtb.walker            5                       # Total bandwidth to/from this memory (bytes/s)
system.mem_ctrls.bw_total::cpu02.itb.walker            2                       # Total bandwidth to/from this memory (bytes/s)
system.mem_ctrls.bw_total::cpu02.inst             163                       # Total bandwidth to/from this memory (bytes/s)
system.mem_ctrls.bw_total::cpu02.data             666                       # Total bandwidth to/from this memory (bytes/s)
system.mem_ctrls.bw_total::cpu03.dtb.walker            2                       # Total bandwidth to/from this memory (bytes/s)
system.mem_ctrls.bw_total::cpu03.itb.walker            1                       # Total bandwidth to/from this memory (bytes/s)
system.mem_ctrls.bw_total::cpu03.inst             116                       # Total bandwidth to/from this memory (bytes/s)
system.mem_ctrls.bw_total::cpu03.data             250                       # Total bandwidth to/from this memory (bytes/s)
system.mem_ctrls.bw_total::cpu04.dtb.walker            4                       # Total bandwidth to/from this memory (bytes/s)
system.mem_ctrls.bw_total::cpu04.itb.walker            1                       # Total bandwidth to/from this memory (bytes/s)
system.mem_ctrls.bw_total::cpu04.inst             138                       # Total bandwidth to/from this memory (bytes/s)
system.mem_ctrls.bw_total::cpu04.data             130                       # Total bandwidth to/from this memory (bytes/s)
system.mem_ctrls.bw_total::cpu05.dtb.walker            0                       # Total bandwidth to/from this memory (bytes/s)
system.mem_ctrls.bw_total::cpu05.itb.walker            0                       # Total bandwidth to/from this memory (bytes/s)
system.mem_ctrls.bw_total::cpu05.inst              32                       # Total bandwidth to/from this memory (bytes/s)
system.mem_ctrls.bw_total::cpu05.data              44                       # Total bandwidth to/from this memory (bytes/s)
system.mem_ctrls.bw_total::cpu06.dtb.walker            1                       # Total bandwidth to/from this memory (bytes/s)
system.mem_ctrls.bw_total::cpu06.itb.walker            1                       # Total bandwidth to/from this memory (bytes/s)
system.mem_ctrls.bw_total::cpu06.inst              60                       # Total bandwidth to/from this memory (bytes/s)
system.mem_ctrls.bw_total::cpu06.data             128                       # Total bandwidth to/from this memory (bytes/s)
system.mem_ctrls.bw_total::cpu07.dtb.walker            1                       # Total bandwidth to/from this memory (bytes/s)
system.mem_ctrls.bw_total::cpu07.itb.walker            1                       # Total bandwidth to/from this memory (bytes/s)
system.mem_ctrls.bw_total::cpu07.inst              56                       # Total bandwidth to/from this memory (bytes/s)
system.mem_ctrls.bw_total::cpu07.data             118                       # Total bandwidth to/from this memory (bytes/s)
system.mem_ctrls.bw_total::cpu08.dtb.walker          178                       # Total bandwidth to/from this memory (bytes/s)
system.mem_ctrls.bw_total::cpu08.itb.walker            6                       # Total bandwidth to/from this memory (bytes/s)
system.mem_ctrls.bw_total::cpu08.inst             580                       # Total bandwidth to/from this memory (bytes/s)
system.mem_ctrls.bw_total::cpu08.data            7570                       # Total bandwidth to/from this memory (bytes/s)
system.mem_ctrls.bw_total::cpu09.dtb.walker            1                       # Total bandwidth to/from this memory (bytes/s)
system.mem_ctrls.bw_total::cpu09.itb.walker            1                       # Total bandwidth to/from this memory (bytes/s)
system.mem_ctrls.bw_total::cpu09.inst              54                       # Total bandwidth to/from this memory (bytes/s)
system.mem_ctrls.bw_total::cpu09.data              87                       # Total bandwidth to/from this memory (bytes/s)
system.mem_ctrls.bw_total::cpu10.dtb.walker            0                       # Total bandwidth to/from this memory (bytes/s)
system.mem_ctrls.bw_total::cpu10.itb.walker            0                       # Total bandwidth to/from this memory (bytes/s)
system.mem_ctrls.bw_total::cpu10.inst              21                       # Total bandwidth to/from this memory (bytes/s)
system.mem_ctrls.bw_total::cpu10.data              22                       # Total bandwidth to/from this memory (bytes/s)
system.mem_ctrls.bw_total::cpu11.dtb.walker            1                       # Total bandwidth to/from this memory (bytes/s)
system.mem_ctrls.bw_total::cpu11.itb.walker            1                       # Total bandwidth to/from this memory (bytes/s)
system.mem_ctrls.bw_total::cpu11.inst              56                       # Total bandwidth to/from this memory (bytes/s)
system.mem_ctrls.bw_total::cpu11.data             119                       # Total bandwidth to/from this memory (bytes/s)
system.mem_ctrls.bw_total::cpu12.dtb.walker            1                       # Total bandwidth to/from this memory (bytes/s)
system.mem_ctrls.bw_total::cpu12.itb.walker            1                       # Total bandwidth to/from this memory (bytes/s)
system.mem_ctrls.bw_total::cpu12.inst              58                       # Total bandwidth to/from this memory (bytes/s)
system.mem_ctrls.bw_total::cpu12.data             120                       # Total bandwidth to/from this memory (bytes/s)
system.mem_ctrls.bw_total::cpu13.dtb.walker            8                       # Total bandwidth to/from this memory (bytes/s)
system.mem_ctrls.bw_total::cpu13.itb.walker            2                       # Total bandwidth to/from this memory (bytes/s)
system.mem_ctrls.bw_total::cpu13.inst             253                       # Total bandwidth to/from this memory (bytes/s)
system.mem_ctrls.bw_total::cpu13.data             220                       # Total bandwidth to/from this memory (bytes/s)
system.mem_ctrls.bw_total::cpu14.dtb.walker          226                       # Total bandwidth to/from this memory (bytes/s)
system.mem_ctrls.bw_total::cpu14.itb.walker          164                       # Total bandwidth to/from this memory (bytes/s)
system.mem_ctrls.bw_total::cpu14.inst            3235                       # Total bandwidth to/from this memory (bytes/s)
system.mem_ctrls.bw_total::cpu14.data            2872                       # Total bandwidth to/from this memory (bytes/s)
system.mem_ctrls.bw_total::cpu15.dtb.walker            2                       # Total bandwidth to/from this memory (bytes/s)
system.mem_ctrls.bw_total::cpu15.itb.walker            1                       # Total bandwidth to/from this memory (bytes/s)
system.mem_ctrls.bw_total::cpu15.inst              87                       # Total bandwidth to/from this memory (bytes/s)
system.mem_ctrls.bw_total::cpu15.data              81                       # Total bandwidth to/from this memory (bytes/s)
system.mem_ctrls.bw_total::total                34669                       # Total bandwidth to/from this memory (bytes/s)
system.mem_ctrls.readReqs                           0                       # Number of read requests accepted
system.mem_ctrls.writeReqs                          0                       # Number of write requests accepted
system.mem_ctrls.readBursts                         0                       # Number of DRAM read bursts, including those serviced by the write queue
system.mem_ctrls.writeBursts                        0                       # Number of DRAM write bursts, including those merged in the write queue
system.mem_ctrls.bytesReadDRAM                      0                       # Total number of bytes read from DRAM
system.mem_ctrls.bytesReadWrQ                       0                       # Total number of bytes read from write queue
system.mem_ctrls.bytesWritten                       0                       # Total number of bytes written to DRAM
system.mem_ctrls.bytesReadSys                       0                       # Total read bytes from the system interface side
system.mem_ctrls.bytesWrittenSys                    0                       # Total written bytes from the system interface side
system.mem_ctrls.servicedByWrQ                      0                       # Number of DRAM read bursts serviced by the write queue
system.mem_ctrls.mergedWrBursts                     0                       # Number of DRAM write bursts merged with an existing one
system.mem_ctrls.neitherReadNorWriteReqs            0                       # Number of requests that are neither read nor write
system.mem_ctrls.perBankRdBursts::0                 0                       # Per bank write bursts
system.mem_ctrls.perBankRdBursts::1                 0                       # Per bank write bursts
system.mem_ctrls.perBankRdBursts::2                 0                       # Per bank write bursts
system.mem_ctrls.perBankRdBursts::3                 0                       # Per bank write bursts
system.mem_ctrls.perBankRdBursts::4                 0                       # Per bank write bursts
system.mem_ctrls.perBankRdBursts::5                 0                       # Per bank write bursts
system.mem_ctrls.perBankRdBursts::6                 0                       # Per bank write bursts
system.mem_ctrls.perBankRdBursts::7                 0                       # Per bank write bursts
system.mem_ctrls.perBankRdBursts::8                 0                       # Per bank write bursts
system.mem_ctrls.perBankRdBursts::9                 0                       # Per bank write bursts
system.mem_ctrls.perBankRdBursts::10                0                       # Per bank write bursts
system.mem_ctrls.perBankRdBursts::11                0                       # Per bank write bursts
system.mem_ctrls.perBankRdBursts::12                0                       # Per bank write bursts
system.mem_ctrls.perBankRdBursts::13                0                       # Per bank write bursts
system.mem_ctrls.perBankRdBursts::14                0                       # Per bank write bursts
system.mem_ctrls.perBankRdBursts::15                0                       # Per bank write bursts
system.mem_ctrls.perBankRdBursts::16                0                       # Per bank write bursts
system.mem_ctrls.perBankRdBursts::17                0                       # Per bank write bursts
system.mem_ctrls.perBankRdBursts::18                0                       # Per bank write bursts
system.mem_ctrls.perBankRdBursts::19                0                       # Per bank write bursts
system.mem_ctrls.perBankRdBursts::20                0                       # Per bank write bursts
system.mem_ctrls.perBankRdBursts::21                0                       # Per bank write bursts
system.mem_ctrls.perBankRdBursts::22                0                       # Per bank write bursts
system.mem_ctrls.perBankRdBursts::23                0                       # Per bank write bursts
system.mem_ctrls.perBankRdBursts::24                0                       # Per bank write bursts
system.mem_ctrls.perBankRdBursts::25                0                       # Per bank write bursts
system.mem_ctrls.perBankRdBursts::26                0                       # Per bank write bursts
system.mem_ctrls.perBankRdBursts::27                0                       # Per bank write bursts
system.mem_ctrls.perBankRdBursts::28                0                       # Per bank write bursts
system.mem_ctrls.perBankRdBursts::29                0                       # Per bank write bursts
system.mem_ctrls.perBankRdBursts::30                0                       # Per bank write bursts
system.mem_ctrls.perBankRdBursts::31                0                       # Per bank write bursts
system.mem_ctrls.perBankWrBursts::0                 0                       # Per bank write bursts
system.mem_ctrls.perBankWrBursts::1                 0                       # Per bank write bursts
system.mem_ctrls.perBankWrBursts::2                 0                       # Per bank write bursts
system.mem_ctrls.perBankWrBursts::3                 0                       # Per bank write bursts
system.mem_ctrls.perBankWrBursts::4                 0                       # Per bank write bursts
system.mem_ctrls.perBankWrBursts::5                 0                       # Per bank write bursts
system.mem_ctrls.perBankWrBursts::6                 0                       # Per bank write bursts
system.mem_ctrls.perBankWrBursts::7                 0                       # Per bank write bursts
system.mem_ctrls.perBankWrBursts::8                 0                       # Per bank write bursts
system.mem_ctrls.perBankWrBursts::9                 0                       # Per bank write bursts
system.mem_ctrls.perBankWrBursts::10                0                       # Per bank write bursts
system.mem_ctrls.perBankWrBursts::11                0                       # Per bank write bursts
system.mem_ctrls.perBankWrBursts::12                0                       # Per bank write bursts
system.mem_ctrls.perBankWrBursts::13                0                       # Per bank write bursts
system.mem_ctrls.perBankWrBursts::14                0                       # Per bank write bursts
system.mem_ctrls.perBankWrBursts::15                0                       # Per bank write bursts
system.mem_ctrls.perBankWrBursts::16                0                       # Per bank write bursts
system.mem_ctrls.perBankWrBursts::17                0                       # Per bank write bursts
system.mem_ctrls.perBankWrBursts::18                0                       # Per bank write bursts
system.mem_ctrls.perBankWrBursts::19                0                       # Per bank write bursts
system.mem_ctrls.perBankWrBursts::20                0                       # Per bank write bursts
system.mem_ctrls.perBankWrBursts::21                0                       # Per bank write bursts
system.mem_ctrls.perBankWrBursts::22                0                       # Per bank write bursts
system.mem_ctrls.perBankWrBursts::23                0                       # Per bank write bursts
system.mem_ctrls.perBankWrBursts::24                0                       # Per bank write bursts
system.mem_ctrls.perBankWrBursts::25                0                       # Per bank write bursts
system.mem_ctrls.perBankWrBursts::26                0                       # Per bank write bursts
system.mem_ctrls.perBankWrBursts::27                0                       # Per bank write bursts
system.mem_ctrls.perBankWrBursts::28                0                       # Per bank write bursts
system.mem_ctrls.perBankWrBursts::29                0                       # Per bank write bursts
system.mem_ctrls.perBankWrBursts::30                0                       # Per bank write bursts
system.mem_ctrls.perBankWrBursts::31                0                       # Per bank write bursts
system.mem_ctrls.numRdRetry                         0                       # Number of times read queue was full causing retry
system.mem_ctrls.numWrRetry                         0                       # Number of times write queue was full causing retry
system.mem_ctrls.totGap                             0                       # Total gap between requests
system.mem_ctrls.readPktSize::0                     0                       # Read request sizes (log2)
system.mem_ctrls.readPktSize::1                     0                       # Read request sizes (log2)
system.mem_ctrls.readPktSize::2                     0                       # Read request sizes (log2)
system.mem_ctrls.readPktSize::3                     0                       # Read request sizes (log2)
system.mem_ctrls.readPktSize::4                     0                       # Read request sizes (log2)
system.mem_ctrls.readPktSize::5                     0                       # Read request sizes (log2)
system.mem_ctrls.readPktSize::6                     0                       # Read request sizes (log2)
system.mem_ctrls.writePktSize::0                    0                       # Write request sizes (log2)
system.mem_ctrls.writePktSize::1                    0                       # Write request sizes (log2)
system.mem_ctrls.writePktSize::2                    0                       # Write request sizes (log2)
system.mem_ctrls.writePktSize::3                    0                       # Write request sizes (log2)
system.mem_ctrls.writePktSize::4                    0                       # Write request sizes (log2)
system.mem_ctrls.writePktSize::5                    0                       # Write request sizes (log2)
system.mem_ctrls.writePktSize::6                    0                       # Write request sizes (log2)
system.mem_ctrls.rdQLenPdf::0                       0                       # What read queue length does an incoming req see
system.mem_ctrls.rdQLenPdf::1                       0                       # What read queue length does an incoming req see
system.mem_ctrls.rdQLenPdf::2                       0                       # What read queue length does an incoming req see
system.mem_ctrls.rdQLenPdf::3                       0                       # What read queue length does an incoming req see
system.mem_ctrls.rdQLenPdf::4                       0                       # What read queue length does an incoming req see
system.mem_ctrls.rdQLenPdf::5                       0                       # What read queue length does an incoming req see
system.mem_ctrls.rdQLenPdf::6                       0                       # What read queue length does an incoming req see
system.mem_ctrls.rdQLenPdf::7                       0                       # What read queue length does an incoming req see
system.mem_ctrls.rdQLenPdf::8                       0                       # What read queue length does an incoming req see
system.mem_ctrls.rdQLenPdf::9                       0                       # What read queue length does an incoming req see
system.mem_ctrls.rdQLenPdf::10                      0                       # What read queue length does an incoming req see
system.mem_ctrls.rdQLenPdf::11                      0                       # What read queue length does an incoming req see
system.mem_ctrls.rdQLenPdf::12                      0                       # What read queue length does an incoming req see
system.mem_ctrls.rdQLenPdf::13                      0                       # What read queue length does an incoming req see
system.mem_ctrls.rdQLenPdf::14                      0                       # What read queue length does an incoming req see
system.mem_ctrls.rdQLenPdf::15                      0                       # What read queue length does an incoming req see
system.mem_ctrls.rdQLenPdf::16                      0                       # What read queue length does an incoming req see
system.mem_ctrls.rdQLenPdf::17                      0                       # What read queue length does an incoming req see
system.mem_ctrls.rdQLenPdf::18                      0                       # What read queue length does an incoming req see
system.mem_ctrls.rdQLenPdf::19                      0                       # What read queue length does an incoming req see
system.mem_ctrls.rdQLenPdf::20                      0                       # What read queue length does an incoming req see
system.mem_ctrls.rdQLenPdf::21                      0                       # What read queue length does an incoming req see
system.mem_ctrls.rdQLenPdf::22                      0                       # What read queue length does an incoming req see
system.mem_ctrls.rdQLenPdf::23                      0                       # What read queue length does an incoming req see
system.mem_ctrls.rdQLenPdf::24                      0                       # What read queue length does an incoming req see
system.mem_ctrls.rdQLenPdf::25                      0                       # What read queue length does an incoming req see
system.mem_ctrls.rdQLenPdf::26                      0                       # What read queue length does an incoming req see
system.mem_ctrls.rdQLenPdf::27                      0                       # What read queue length does an incoming req see
system.mem_ctrls.rdQLenPdf::28                      0                       # What read queue length does an incoming req see
system.mem_ctrls.rdQLenPdf::29                      0                       # What read queue length does an incoming req see
system.mem_ctrls.rdQLenPdf::30                      0                       # What read queue length does an incoming req see
system.mem_ctrls.rdQLenPdf::31                      0                       # What read queue length does an incoming req see
system.mem_ctrls.rdQLenPdf::32                      0                       # What read queue length does an incoming req see
system.mem_ctrls.rdQLenPdf::33                      0                       # What read queue length does an incoming req see
system.mem_ctrls.rdQLenPdf::34                      0                       # What read queue length does an incoming req see
system.mem_ctrls.rdQLenPdf::35                      0                       # What read queue length does an incoming req see
system.mem_ctrls.rdQLenPdf::36                      0                       # What read queue length does an incoming req see
system.mem_ctrls.rdQLenPdf::37                      0                       # What read queue length does an incoming req see
system.mem_ctrls.rdQLenPdf::38                      0                       # What read queue length does an incoming req see
system.mem_ctrls.rdQLenPdf::39                      0                       # What read queue length does an incoming req see
system.mem_ctrls.rdQLenPdf::40                      0                       # What read queue length does an incoming req see
system.mem_ctrls.rdQLenPdf::41                      0                       # What read queue length does an incoming req see
system.mem_ctrls.rdQLenPdf::42                      0                       # What read queue length does an incoming req see
system.mem_ctrls.rdQLenPdf::43                      0                       # What read queue length does an incoming req see
system.mem_ctrls.rdQLenPdf::44                      0                       # What read queue length does an incoming req see
system.mem_ctrls.rdQLenPdf::45                      0                       # What read queue length does an incoming req see
system.mem_ctrls.rdQLenPdf::46                      0                       # What read queue length does an incoming req see
system.mem_ctrls.rdQLenPdf::47                      0                       # What read queue length does an incoming req see
system.mem_ctrls.rdQLenPdf::48                      0                       # What read queue length does an incoming req see
system.mem_ctrls.rdQLenPdf::49                      0                       # What read queue length does an incoming req see
system.mem_ctrls.rdQLenPdf::50                      0                       # What read queue length does an incoming req see
system.mem_ctrls.rdQLenPdf::51                      0                       # What read queue length does an incoming req see
system.mem_ctrls.rdQLenPdf::52                      0                       # What read queue length does an incoming req see
system.mem_ctrls.rdQLenPdf::53                      0                       # What read queue length does an incoming req see
system.mem_ctrls.rdQLenPdf::54                      0                       # What read queue length does an incoming req see
system.mem_ctrls.rdQLenPdf::55                      0                       # What read queue length does an incoming req see
system.mem_ctrls.rdQLenPdf::56                      0                       # What read queue length does an incoming req see
system.mem_ctrls.rdQLenPdf::57                      0                       # What read queue length does an incoming req see
system.mem_ctrls.rdQLenPdf::58                      0                       # What read queue length does an incoming req see
system.mem_ctrls.rdQLenPdf::59                      0                       # What read queue length does an incoming req see
system.mem_ctrls.rdQLenPdf::60                      0                       # What read queue length does an incoming req see
system.mem_ctrls.rdQLenPdf::61                      0                       # What read queue length does an incoming req see
system.mem_ctrls.rdQLenPdf::62                      0                       # What read queue length does an incoming req see
system.mem_ctrls.rdQLenPdf::63                      0                       # What read queue length does an incoming req see
system.mem_ctrls.wrQLenPdf::0                       0                       # What write queue length does an incoming req see
system.mem_ctrls.wrQLenPdf::1                       0                       # What write queue length does an incoming req see
system.mem_ctrls.wrQLenPdf::2                       0                       # What write queue length does an incoming req see
system.mem_ctrls.wrQLenPdf::3                       0                       # What write queue length does an incoming req see
system.mem_ctrls.wrQLenPdf::4                       0                       # What write queue length does an incoming req see
system.mem_ctrls.wrQLenPdf::5                       0                       # What write queue length does an incoming req see
system.mem_ctrls.wrQLenPdf::6                       0                       # What write queue length does an incoming req see
system.mem_ctrls.wrQLenPdf::7                       0                       # What write queue length does an incoming req see
system.mem_ctrls.wrQLenPdf::8                       0                       # What write queue length does an incoming req see
system.mem_ctrls.wrQLenPdf::9                       0                       # What write queue length does an incoming req see
system.mem_ctrls.wrQLenPdf::10                      0                       # What write queue length does an incoming req see
system.mem_ctrls.wrQLenPdf::11                      0                       # What write queue length does an incoming req see
system.mem_ctrls.wrQLenPdf::12                      0                       # What write queue length does an incoming req see
system.mem_ctrls.wrQLenPdf::13                      0                       # What write queue length does an incoming req see
system.mem_ctrls.wrQLenPdf::14                      0                       # What write queue length does an incoming req see
system.mem_ctrls.wrQLenPdf::15                      0                       # What write queue length does an incoming req see
system.mem_ctrls.wrQLenPdf::16                      0                       # What write queue length does an incoming req see
system.mem_ctrls.wrQLenPdf::17                      0                       # What write queue length does an incoming req see
system.mem_ctrls.wrQLenPdf::18                      0                       # What write queue length does an incoming req see
system.mem_ctrls.wrQLenPdf::19                      0                       # What write queue length does an incoming req see
system.mem_ctrls.wrQLenPdf::20                      0                       # What write queue length does an incoming req see
system.mem_ctrls.wrQLenPdf::21                      0                       # What write queue length does an incoming req see
system.mem_ctrls.wrQLenPdf::22                      0                       # What write queue length does an incoming req see
system.mem_ctrls.wrQLenPdf::23                      0                       # What write queue length does an incoming req see
system.mem_ctrls.wrQLenPdf::24                      0                       # What write queue length does an incoming req see
system.mem_ctrls.wrQLenPdf::25                      0                       # What write queue length does an incoming req see
system.mem_ctrls.wrQLenPdf::26                      0                       # What write queue length does an incoming req see
system.mem_ctrls.wrQLenPdf::27                      0                       # What write queue length does an incoming req see
system.mem_ctrls.wrQLenPdf::28                      0                       # What write queue length does an incoming req see
system.mem_ctrls.wrQLenPdf::29                      0                       # What write queue length does an incoming req see
system.mem_ctrls.wrQLenPdf::30                      0                       # What write queue length does an incoming req see
system.mem_ctrls.wrQLenPdf::31                      0                       # What write queue length does an incoming req see
system.mem_ctrls.wrQLenPdf::32                      0                       # What write queue length does an incoming req see
system.mem_ctrls.wrQLenPdf::33                      0                       # What write queue length does an incoming req see
system.mem_ctrls.wrQLenPdf::34                      0                       # What write queue length does an incoming req see
system.mem_ctrls.wrQLenPdf::35                      0                       # What write queue length does an incoming req see
system.mem_ctrls.wrQLenPdf::36                      0                       # What write queue length does an incoming req see
system.mem_ctrls.wrQLenPdf::37                      0                       # What write queue length does an incoming req see
system.mem_ctrls.wrQLenPdf::38                      0                       # What write queue length does an incoming req see
system.mem_ctrls.wrQLenPdf::39                      0                       # What write queue length does an incoming req see
system.mem_ctrls.wrQLenPdf::40                      0                       # What write queue length does an incoming req see
system.mem_ctrls.wrQLenPdf::41                      0                       # What write queue length does an incoming req see
system.mem_ctrls.wrQLenPdf::42                      0                       # What write queue length does an incoming req see
system.mem_ctrls.wrQLenPdf::43                      0                       # What write queue length does an incoming req see
system.mem_ctrls.wrQLenPdf::44                      0                       # What write queue length does an incoming req see
system.mem_ctrls.wrQLenPdf::45                      0                       # What write queue length does an incoming req see
system.mem_ctrls.wrQLenPdf::46                      0                       # What write queue length does an incoming req see
system.mem_ctrls.wrQLenPdf::47                      0                       # What write queue length does an incoming req see
system.mem_ctrls.wrQLenPdf::48                      0                       # What write queue length does an incoming req see
system.mem_ctrls.wrQLenPdf::49                      0                       # What write queue length does an incoming req see
system.mem_ctrls.wrQLenPdf::50                      0                       # What write queue length does an incoming req see
system.mem_ctrls.wrQLenPdf::51                      0                       # What write queue length does an incoming req see
system.mem_ctrls.wrQLenPdf::52                      0                       # What write queue length does an incoming req see
system.mem_ctrls.wrQLenPdf::53                      0                       # What write queue length does an incoming req see
system.mem_ctrls.wrQLenPdf::54                      0                       # What write queue length does an incoming req see
system.mem_ctrls.wrQLenPdf::55                      0                       # What write queue length does an incoming req see
system.mem_ctrls.wrQLenPdf::56                      0                       # What write queue length does an incoming req see
system.mem_ctrls.wrQLenPdf::57                      0                       # What write queue length does an incoming req see
system.mem_ctrls.wrQLenPdf::58                      0                       # What write queue length does an incoming req see
system.mem_ctrls.wrQLenPdf::59                      0                       # What write queue length does an incoming req see
system.mem_ctrls.wrQLenPdf::60                      0                       # What write queue length does an incoming req see
system.mem_ctrls.wrQLenPdf::61                      0                       # What write queue length does an incoming req see
system.mem_ctrls.wrQLenPdf::62                      0                       # What write queue length does an incoming req see
system.mem_ctrls.wrQLenPdf::63                      0                       # What write queue length does an incoming req see
system.mem_ctrls.wrQLenPdf::64                      0                       # What write queue length does an incoming req see
system.mem_ctrls.wrQLenPdf::65                      0                       # What write queue length does an incoming req see
system.mem_ctrls.wrQLenPdf::66                      0                       # What write queue length does an incoming req see
system.mem_ctrls.wrQLenPdf::67                      0                       # What write queue length does an incoming req see
system.mem_ctrls.wrQLenPdf::68                      0                       # What write queue length does an incoming req see
system.mem_ctrls.wrQLenPdf::69                      0                       # What write queue length does an incoming req see
system.mem_ctrls.wrQLenPdf::70                      0                       # What write queue length does an incoming req see
system.mem_ctrls.wrQLenPdf::71                      0                       # What write queue length does an incoming req see
system.mem_ctrls.wrQLenPdf::72                      0                       # What write queue length does an incoming req see
system.mem_ctrls.wrQLenPdf::73                      0                       # What write queue length does an incoming req see
system.mem_ctrls.wrQLenPdf::74                      0                       # What write queue length does an incoming req see
system.mem_ctrls.wrQLenPdf::75                      0                       # What write queue length does an incoming req see
system.mem_ctrls.wrQLenPdf::76                      0                       # What write queue length does an incoming req see
system.mem_ctrls.wrQLenPdf::77                      0                       # What write queue length does an incoming req see
system.mem_ctrls.wrQLenPdf::78                      0                       # What write queue length does an incoming req see
system.mem_ctrls.wrQLenPdf::79                      0                       # What write queue length does an incoming req see
system.mem_ctrls.wrQLenPdf::80                      0                       # What write queue length does an incoming req see
system.mem_ctrls.wrQLenPdf::81                      0                       # What write queue length does an incoming req see
system.mem_ctrls.wrQLenPdf::82                      0                       # What write queue length does an incoming req see
system.mem_ctrls.wrQLenPdf::83                      0                       # What write queue length does an incoming req see
system.mem_ctrls.wrQLenPdf::84                      0                       # What write queue length does an incoming req see
system.mem_ctrls.wrQLenPdf::85                      0                       # What write queue length does an incoming req see
system.mem_ctrls.wrQLenPdf::86                      0                       # What write queue length does an incoming req see
system.mem_ctrls.wrQLenPdf::87                      0                       # What write queue length does an incoming req see
system.mem_ctrls.wrQLenPdf::88                      0                       # What write queue length does an incoming req see
system.mem_ctrls.wrQLenPdf::89                      0                       # What write queue length does an incoming req see
system.mem_ctrls.wrQLenPdf::90                      0                       # What write queue length does an incoming req see
system.mem_ctrls.wrQLenPdf::91                      0                       # What write queue length does an incoming req see
system.mem_ctrls.wrQLenPdf::92                      0                       # What write queue length does an incoming req see
system.mem_ctrls.wrQLenPdf::93                      0                       # What write queue length does an incoming req see
system.mem_ctrls.wrQLenPdf::94                      0                       # What write queue length does an incoming req see
system.mem_ctrls.wrQLenPdf::95                      0                       # What write queue length does an incoming req see
system.mem_ctrls.wrQLenPdf::96                      0                       # What write queue length does an incoming req see
system.mem_ctrls.wrQLenPdf::97                      0                       # What write queue length does an incoming req see
system.mem_ctrls.wrQLenPdf::98                      0                       # What write queue length does an incoming req see
system.mem_ctrls.wrQLenPdf::99                      0                       # What write queue length does an incoming req see
system.mem_ctrls.wrQLenPdf::100                     0                       # What write queue length does an incoming req see
system.mem_ctrls.wrQLenPdf::101                     0                       # What write queue length does an incoming req see
system.mem_ctrls.wrQLenPdf::102                     0                       # What write queue length does an incoming req see
system.mem_ctrls.wrQLenPdf::103                     0                       # What write queue length does an incoming req see
system.mem_ctrls.wrQLenPdf::104                     0                       # What write queue length does an incoming req see
system.mem_ctrls.wrQLenPdf::105                     0                       # What write queue length does an incoming req see
system.mem_ctrls.wrQLenPdf::106                     0                       # What write queue length does an incoming req see
system.mem_ctrls.wrQLenPdf::107                     0                       # What write queue length does an incoming req see
system.mem_ctrls.wrQLenPdf::108                     0                       # What write queue length does an incoming req see
system.mem_ctrls.wrQLenPdf::109                     0                       # What write queue length does an incoming req see
system.mem_ctrls.wrQLenPdf::110                     0                       # What write queue length does an incoming req see
system.mem_ctrls.wrQLenPdf::111                     0                       # What write queue length does an incoming req see
system.mem_ctrls.wrQLenPdf::112                     0                       # What write queue length does an incoming req see
system.mem_ctrls.wrQLenPdf::113                     0                       # What write queue length does an incoming req see
system.mem_ctrls.wrQLenPdf::114                     0                       # What write queue length does an incoming req see
system.mem_ctrls.wrQLenPdf::115                     0                       # What write queue length does an incoming req see
system.mem_ctrls.wrQLenPdf::116                     0                       # What write queue length does an incoming req see
system.mem_ctrls.wrQLenPdf::117                     0                       # What write queue length does an incoming req see
system.mem_ctrls.wrQLenPdf::118                     0                       # What write queue length does an incoming req see
system.mem_ctrls.wrQLenPdf::119                     0                       # What write queue length does an incoming req see
system.mem_ctrls.wrQLenPdf::120                     0                       # What write queue length does an incoming req see
system.mem_ctrls.wrQLenPdf::121                     0                       # What write queue length does an incoming req see
system.mem_ctrls.wrQLenPdf::122                     0                       # What write queue length does an incoming req see
system.mem_ctrls.wrQLenPdf::123                     0                       # What write queue length does an incoming req see
system.mem_ctrls.wrQLenPdf::124                     0                       # What write queue length does an incoming req see
system.mem_ctrls.wrQLenPdf::125                     0                       # What write queue length does an incoming req see
system.mem_ctrls.wrQLenPdf::126                     0                       # What write queue length does an incoming req see
system.mem_ctrls.wrQLenPdf::127                     0                       # What write queue length does an incoming req see
system.mem_ctrls.totQLat                            0                       # Total ticks spent queuing
system.mem_ctrls.totMemAccLat                       0                       # Total ticks spent from burst creation until serviced by the DRAM
system.mem_ctrls.totBusLat                          0                       # Total ticks spent in databus transfers
system.mem_ctrls.avgQLat                          nan                       # Average queueing delay per DRAM burst
system.mem_ctrls.avgBusLat                        nan                       # Average bus latency per DRAM burst
system.mem_ctrls.avgMemAccLat                     nan                       # Average memory access latency per DRAM burst
system.mem_ctrls.avgRdBW                         0.00                       # Average DRAM read bandwidth in MiByte/s
system.mem_ctrls.avgWrBW                         0.00                       # Average achieved write bandwidth in MiByte/s
system.mem_ctrls.avgRdBWSys                      0.00                       # Average system read bandwidth in MiByte/s
system.mem_ctrls.avgWrBWSys                      0.00                       # Average system write bandwidth in MiByte/s
system.mem_ctrls.peakBW                      19207.00                       # Theoretical peak bandwidth in MiByte/s
system.mem_ctrls.busUtil                         0.00                       # Data bus utilization in percentage
system.mem_ctrls.busUtilRead                     0.00                       # Data bus utilization in percentage for reads
system.mem_ctrls.busUtilWrite                    0.00                       # Data bus utilization in percentage for writes
system.mem_ctrls.avgRdQLen                       0.00                       # Average read queue length when enqueuing
system.mem_ctrls.avgWrQLen                       0.00                       # Average write queue length when enqueuing
system.mem_ctrls.readRowHits                        0                       # Number of row buffer hits during reads
system.mem_ctrls.writeRowHits                       0                       # Number of row buffer hits during writes
system.mem_ctrls.readRowHitRate                   nan                       # Row buffer hit rate for reads
system.mem_ctrls.writeRowHitRate                  nan                       # Row buffer hit rate for writes
system.mem_ctrls.avgGap                           nan                       # Average gap between requests
system.mem_ctrls.pageHitRate                      nan                       # Row buffer hit rate, read and write combined
system.mem_ctrls_0.actEnergy                        0                       # Energy for activate commands per rank (pJ)
system.mem_ctrls_0.preEnergy                        0                       # Energy for precharge commands per rank (pJ)
system.mem_ctrls_0.readEnergy                       0                       # Energy for read commands per rank (pJ)
system.mem_ctrls_0.writeEnergy                      0                       # Energy for write commands per rank (pJ)
system.mem_ctrls_0.refreshEnergy                    0                       # Energy for refresh commands per rank (pJ)
system.mem_ctrls_0.actBackEnergy                    0                       # Energy for active background per rank (pJ)
system.mem_ctrls_0.preBackEnergy         3880282655528366.500000                       # Energy for precharge background per rank (pJ)
system.mem_ctrls_0.actPowerDownEnergy               0                       # Energy for active power-down per rank (pJ)
system.mem_ctrls_0.prePowerDownEnergy               0                       # Energy for precharge power-down per rank (pJ)
system.mem_ctrls_0.selfRefreshEnergy                0                       # Energy for self refresh per rank (pJ)
system.mem_ctrls_0.totalEnergy           3880282655528366.500000                       # Total energy per rank (pJ)
system.mem_ctrls_0.averagePower            163.200000                       # Core power per rank (mW)
system.mem_ctrls_0.totalIdleTime                    0                       # Total Idle time Per DRAM Rank
system.mem_ctrls_0.memoryStateTime::IDLE 30523364816597000                       # Time in different power states
system.mem_ctrls_0.memoryStateTime::REF             0                       # Time in different power states
system.mem_ctrls_0.memoryStateTime::SREF            0                       # Time in different power states
system.mem_ctrls_0.memoryStateTime::PRE_PDN            0                       # Time in different power states
system.mem_ctrls_0.memoryStateTime::ACT             0                       # Time in different power states
system.mem_ctrls_0.memoryStateTime::ACT_PDN            0                       # Time in different power states
system.mem_ctrls_1.actEnergy                        0                       # Energy for activate commands per rank (pJ)
system.mem_ctrls_1.preEnergy                        0                       # Energy for precharge commands per rank (pJ)
system.mem_ctrls_1.readEnergy                       0                       # Energy for read commands per rank (pJ)
system.mem_ctrls_1.writeEnergy                      0                       # Energy for write commands per rank (pJ)
system.mem_ctrls_1.refreshEnergy                    0                       # Energy for refresh commands per rank (pJ)
system.mem_ctrls_1.actBackEnergy                    0                       # Energy for active background per rank (pJ)
system.mem_ctrls_1.preBackEnergy         3880282655528366.500000                       # Energy for precharge background per rank (pJ)
system.mem_ctrls_1.actPowerDownEnergy               0                       # Energy for active power-down per rank (pJ)
system.mem_ctrls_1.prePowerDownEnergy               0                       # Energy for precharge power-down per rank (pJ)
system.mem_ctrls_1.selfRefreshEnergy                0                       # Energy for self refresh per rank (pJ)
[...]
system.tol2bus12.pkt_size_system.cpu12.itb.walker.dma::system.l212.cpu_side       296144                       # Cumulative packet size per connected master and slave (bytes)
system.tol2bus12.pkt_size_system.cpu12.dtb.walker.dma::system.l212.cpu_side       266640                       # Cumulative packet size per connected master and slave (bytes)
system.tol2bus12.pkt_size::total             35811376                       # Cumulative packet size per connected master and slave (bytes)
system.tol2bus12.snoops                       1086629                       # Total snoops (count)
system.tol2bus12.snoopTraffic                 1263680                       # Total snoop traffic (bytes)
system.tol2bus12.snoop_fanout::samples        1489028                       # Request fanout histogram
system.tol2bus12.snoop_fanout::mean          0.135992                       # Request fanout histogram
system.tol2bus12.snoop_fanout::stdev         0.342780                       # Request fanout histogram
system.tol2bus12.snoop_fanout::underflows            0      0.00%      0.00% # Request fanout histogram
system.tol2bus12.snoop_fanout::0              1286532     86.40%     86.40% # Request fanout histogram
system.tol2bus12.snoop_fanout::1               202496     13.60%    100.00% # Request fanout histogram
system.tol2bus12.snoop_fanout::2                    0      0.00%    100.00% # Request fanout histogram
system.tol2bus12.snoop_fanout::overflows            0      0.00%    100.00% # Request fanout histogram
system.tol2bus12.snoop_fanout::min_value            0                       # Request fanout histogram
system.tol2bus12.snoop_fanout::max_value            1                       # Request fanout histogram
system.tol2bus12.snoop_fanout::total          1489028                       # Request fanout histogram
system.tol2bus12.directResponses                    0                       # auxiliar stat for checking how reasonable wireless model is
system.tol2bus13.snoop_filter.tot_requests     14717696                       # Total number of requests made to the snoop filter.
system.tol2bus13.snoop_filter.hit_single_requests      7376073                       # Number of requests hitting in the snoop filter with a single holder of the requested data.
system.tol2bus13.snoop_filter.hit_multi_requests            0                       # Number of requests hitting in the snoop filter with multiple (>1) holders of the requested data.
system.tol2bus13.snoop_filter.tot_snoops       411831                       # Total number of snoops made to the snoop filter.
system.tol2bus13.snoop_filter.hit_single_snoops       411831                       # Number of snoops hitting in the snoop filter with a single holder of the requested data.
system.tol2bus13.snoop_filter.hit_multi_snoops            0                       # Number of snoops hitting in the snoop filter with multiple (>1) holders of the requested data.
system.tol2bus13.pwrStateResidencyTicks::UNDEFINED 30523364816597000                       # Cumulative time (in ticks) in various power states
system.tol2bus13.trans_dist::ReadReq          2644503                       # Transaction distribution
system.tol2bus13.trans_dist::ReadResp         9588639                       # Transaction distribution
system.tol2bus13.trans_dist::WriteReq            5045                       # Transaction distribution
system.tol2bus13.trans_dist::WriteResp           5045                       # Transaction distribution
system.tol2bus13.trans_dist::WritebackDirty       829155                       # Transaction distribution
system.tol2bus13.trans_dist::WritebackClean      5390666                       # Transaction distribution
system.tol2bus13.trans_dist::CleanEvict       1048124                       # Transaction distribution
system.tol2bus13.trans_dist::UpgradeReq         51901                       # Transaction distribution
system.tol2bus13.trans_dist::SCUpgradeReq        52081                       # Transaction distribution
system.tol2bus13.trans_dist::UpgradeResp       103982                       # Transaction distribution
system.tol2bus13.trans_dist::ReadExReq         301335                       # Transaction distribution
system.tol2bus13.trans_dist::ReadExResp        301335                       # Transaction distribution
system.tol2bus13.trans_dist::ReadCleanReq      5391178                       # Transaction distribution
system.tol2bus13.trans_dist::ReadSharedReq      1552958                       # Transaction distribution
system.tol2bus13.trans_dist::InvalidateReq        96336                       # Transaction distribution
system.tol2bus13.trans_dist::InvalidateResp        96336                       # Transaction distribution
system.tol2bus13.pkt_count_system.cpu13.icache.mem_side::system.l213.cpu_side     16173022                       # Packet count per connected master and slave (bytes)
system.tol2bus13.pkt_count_system.cpu13.dcache.mem_side::system.l213.cpu_side      6017277                       # Packet count per connected master and slave (bytes)
system.tol2bus13.pkt_count_system.cpu13.itb.walker.dma::system.l213.cpu_side      3427160                       # Packet count per connected master and slave (bytes)
system.tol2bus13.pkt_count_system.cpu13.dtb.walker.dma::system.l213.cpu_side      1841160                       # Packet count per connected master and slave (bytes)
system.tol2bus13.pkt_count::total            27458619                       # Packet count per connected master and slave (bytes)
system.tol2bus13.pkt_size_system.cpu13.icache.mem_side::system.l213.cpu_side    690038016                       # Cumulative packet size per connected master and slave (bytes)
system.tol2bus13.pkt_size_system.cpu13.dcache.mem_side::system.l213.cpu_side    171801459                       # Cumulative packet size per connected master and slave (bytes)
system.tol2bus13.pkt_size_system.cpu13.itb.walker.dma::system.l213.cpu_side     13708640                       # Cumulative packet size per connected master and slave (bytes)
system.tol2bus13.pkt_size_system.cpu13.dtb.walker.dma::system.l213.cpu_side      7364640                       # Cumulative packet size per connected master and slave (bytes)
system.tol2bus13.pkt_size::total            882912755                       # Cumulative packet size per connected master and slave (bytes)
system.tol2bus13.snoops                       1963934                       # Total snoops (count)
system.tol2bus13.snoopTraffic                 1822400                       # Total snoop traffic (bytes)
system.tol2bus13.snoop_fanout::samples       11935921                       # Request fanout histogram
system.tol2bus13.snoop_fanout::mean          0.034835                       # Request fanout histogram
system.tol2bus13.snoop_fanout::stdev         0.183363                       # Request fanout histogram
system.tol2bus13.snoop_fanout::underflows            0      0.00%      0.00% # Request fanout histogram
system.tol2bus13.snoop_fanout::0             11520128     96.52%     96.52% # Request fanout histogram
system.tol2bus13.snoop_fanout::1               415793      3.48%    100.00% # Request fanout histogram
system.tol2bus13.snoop_fanout::2                    0      0.00%    100.00% # Request fanout histogram
system.tol2bus13.snoop_fanout::overflows            0      0.00%    100.00% # Request fanout histogram
system.tol2bus13.snoop_fanout::min_value            0                       # Request fanout histogram
system.tol2bus13.snoop_fanout::max_value            1                       # Request fanout histogram
system.tol2bus13.snoop_fanout::total         11935921                       # Request fanout histogram
system.tol2bus13.directResponses                    0                       # auxiliar stat for checking how reasonable wireless model is
system.tol2bus14.snoop_filter.tot_requests    141844604                       # Total number of requests made to the snoop filter.
system.tol2bus14.snoop_filter.hit_single_requests     70966331                       # Number of requests hitting in the snoop filter with a single holder of the requested data.
system.tol2bus14.snoop_filter.hit_multi_requests           28                       # Number of requests hitting in the snoop filter with multiple (>1) holders of the requested data.
system.tol2bus14.snoop_filter.tot_snoops      1159634                       # Total number of snoops made to the snoop filter.
system.tol2bus14.snoop_filter.hit_single_snoops      1159634                       # Number of snoops hitting in the snoop filter with a single holder of the requested data.
system.tol2bus14.snoop_filter.hit_multi_snoops            0                       # Number of snoops hitting in the snoop filter with multiple (>1) holders of the requested data.
system.tol2bus14.pwrStateResidencyTicks::UNDEFINED 30523364816597000                       # Cumulative time (in ticks) in various power states
system.tol2bus14.trans_dist::ReadReq         19539672                       # Transaction distribution
system.tol2bus14.trans_dist::ReadResp        86888133                       # Transaction distribution
system.tol2bus14.trans_dist::WriteReq           13645                       # Transaction distribution
system.tol2bus14.trans_dist::WriteResp          13645                       # Transaction distribution
system.tol2bus14.trans_dist::WritebackDirty      8359162                       # Transaction distribution
system.tol2bus14.trans_dist::WritebackClean     55031358                       # Transaction distribution
system.tol2bus14.trans_dist::CleanEvict       7266435                       # Transaction distribution
system.tol2bus14.trans_dist::UpgradeReq        148974                       # Transaction distribution
system.tol2bus14.trans_dist::SCUpgradeReq       118001                       # Transaction distribution
system.tol2bus14.trans_dist::UpgradeResp       266975                       # Transaction distribution
system.tol2bus14.trans_dist::ReadExReq        2699225                       # Transaction distribution
system.tol2bus14.trans_dist::ReadExResp       2699225                       # Transaction distribution
system.tol2bus14.trans_dist::ReadCleanReq     55031870                       # Transaction distribution
system.tol2bus14.trans_dist::ReadSharedReq     12316591                       # Transaction distribution
system.tol2bus14.trans_dist::InvalidateReq       836847                       # Transaction distribution
system.tol2bus14.trans_dist::InvalidateResp       836847                       # Transaction distribution
system.tol2bus14.pkt_count_system.cpu14.icache.mem_side::system.l214.cpu_side    165095098                       # Packet count per connected master and slave (bytes)
system.tol2bus14.pkt_count_system.cpu14.dcache.mem_side::system.l214.cpu_side     47913611                       # Packet count per connected master and slave (bytes)
system.tol2bus14.pkt_count_system.cpu14.itb.walker.dma::system.l214.cpu_side     33431482                       # Packet count per connected master and slave (bytes)
system.tol2bus14.pkt_count_system.cpu14.dtb.walker.dma::system.l214.cpu_side      5626414                       # Packet count per connected master and slave (bytes)
system.tol2bus14.pkt_count::total           252066605                       # Packet count per connected master and slave (bytes)
system.tol2bus14.pkt_size_system.cpu14.icache.mem_side::system.l214.cpu_side   7044046592                       # Cumulative packet size per connected master and slave (bytes)
system.tol2bus14.pkt_size_system.cpu14.dcache.mem_side::system.l214.cpu_side   1496095864                       # Cumulative packet size per connected master and slave (bytes)
system.tol2bus14.pkt_size_system.cpu14.itb.walker.dma::system.l214.cpu_side    133725928                       # Cumulative packet size per connected master and slave (bytes)
system.tol2bus14.pkt_size_system.cpu14.dtb.walker.dma::system.l214.cpu_side     22505656                       # Cumulative packet size per connected master and slave (bytes)
system.tol2bus14.pkt_size::total           8696374040                       # Cumulative packet size per connected master and slave (bytes)
system.tol2bus14.snoops                       4647226                       # Total snoops (count)
system.tol2bus14.snoopTraffic                38473792                       # Total snoop traffic (bytes)
system.tol2bus14.snoop_fanout::samples       94954283                       # Request fanout histogram
system.tol2bus14.snoop_fanout::mean          0.012593                       # Request fanout histogram
system.tol2bus14.snoop_fanout::stdev         0.111512                       # Request fanout histogram
system.tol2bus14.snoop_fanout::underflows            0      0.00%      0.00% # Request fanout histogram
system.tol2bus14.snoop_fanout::0             93758480     98.74%     98.74% # Request fanout histogram
system.tol2bus14.snoop_fanout::1              1195803      1.26%    100.00% # Request fanout histogram
system.tol2bus14.snoop_fanout::2                    0      0.00%    100.00% # Request fanout histogram
system.tol2bus14.snoop_fanout::overflows            0      0.00%    100.00% # Request fanout histogram
system.tol2bus14.snoop_fanout::min_value            0                       # Request fanout histogram
system.tol2bus14.snoop_fanout::max_value            1                       # Request fanout histogram
system.tol2bus14.snoop_fanout::total         94954283                       # Request fanout histogram
system.tol2bus14.directResponses                    0                       # auxiliar stat for checking how reasonable wireless model is
system.tol2bus15.snoop_filter.tot_requests      4521544                       # Total number of requests made to the snoop filter.
system.tol2bus15.snoop_filter.hit_single_requests      2263016                       # Number of requests hitting in the snoop filter with a single holder of the requested data.
system.tol2bus15.snoop_filter.hit_multi_requests           10                       # Number of requests hitting in the snoop filter with multiple (>1) holders of the requested data.
system.tol2bus15.snoop_filter.tot_snoops       328411                       # Total number of snoops made to the snoop filter.
system.tol2bus15.snoop_filter.hit_single_snoops       328411                       # Number of snoops hitting in the snoop filter with a single holder of the requested data.
system.tol2bus15.snoop_filter.hit_multi_snoops            0                       # Number of snoops hitting in the snoop filter with multiple (>1) holders of the requested data.
system.tol2bus15.pwrStateResidencyTicks::UNDEFINED 30523364816597000                       # Cumulative time (in ticks) in various power states
system.tol2bus15.trans_dist::ReadReq           716950                       # Transaction distribution
system.tol2bus15.trans_dist::ReadResp         2865954                       # Transaction distribution
system.tol2bus15.trans_dist::WriteReq            2160                       # Transaction distribution
system.tol2bus15.trans_dist::WriteResp           2160                       # Transaction distribution
system.tol2bus15.trans_dist::WritebackDirty       237740                       # Transaction distribution
system.tol2bus15.trans_dist::WritebackClean      1666095                       # Transaction distribution
system.tol2bus15.trans_dist::CleanEvict        312272                       # Transaction distribution
system.tol2bus15.trans_dist::UpgradeReq         24780                       # Transaction distribution
system.tol2bus15.trans_dist::SCUpgradeReq        19371                       # Transaction distribution
system.tol2bus15.trans_dist::UpgradeResp        44151                       # Transaction distribution
system.tol2bus15.trans_dist::ReadExReq          82009                       # Transaction distribution
system.tol2bus15.trans_dist::ReadExResp         82009                       # Transaction distribution
system.tol2bus15.trans_dist::ReadCleanReq      1666607                       # Transaction distribution
system.tol2bus15.trans_dist::ReadSharedReq       482397                       # Transaction distribution
system.tol2bus15.trans_dist::CleanSharedReq          576                       # Transaction distribution
system.tol2bus15.trans_dist::CleanSharedResp          576                       # Transaction distribution
system.tol2bus15.trans_dist::InvalidateReq        27118                       # Transaction distribution
system.tol2bus15.trans_dist::InvalidateResp        27118                       # Transaction distribution
system.tol2bus15.pkt_count_system.cpu15.icache.mem_side::system.l215.cpu_side      4999309                       # Packet count per connected master and slave (bytes)
system.tol2bus15.pkt_count_system.cpu15.dcache.mem_side::system.l215.cpu_side      1835990                       # Packet count per connected master and slave (bytes)
system.tol2bus15.pkt_count_system.cpu15.itb.walker.dma::system.l215.cpu_side       989364                       # Packet count per connected master and slave (bytes)
system.tol2bus15.pkt_count_system.cpu15.dtb.walker.dma::system.l215.cpu_side       435380                       # Packet count per connected master and slave (bytes)
system.tol2bus15.pkt_count::total             8260043                       # Packet count per connected master and slave (bytes)
system.tol2bus15.pkt_size_system.cpu15.icache.mem_side::system.l215.cpu_side    213292928                       # Cumulative packet size per connected master and slave (bytes)
system.tol2bus15.pkt_size_system.cpu15.dcache.mem_side::system.l215.cpu_side     51364194                       # Cumulative packet size per connected master and slave (bytes)
system.tol2bus15.pkt_size_system.cpu15.itb.walker.dma::system.l215.cpu_side      3957456                       # Cumulative packet size per connected master and slave (bytes)
system.tol2bus15.pkt_size_system.cpu15.dtb.walker.dma::system.l215.cpu_side      1741520                       # Cumulative packet size per connected master and slave (bytes)
system.tol2bus15.pkt_size::total            270356098                       # Cumulative packet size per connected master and slave (bytes)
system.tol2bus15.snoops                       1893359                       # Total snoops (count)
system.tol2bus15.snoopTraffic                  511616                       # Total snoop traffic (bytes)
system.tol2bus15.snoop_fanout::samples        4843201                       # Request fanout histogram
system.tol2bus15.snoop_fanout::mean          0.068343                       # Request fanout histogram
system.tol2bus15.snoop_fanout::stdev         0.252334                       # Request fanout histogram
system.tol2bus15.snoop_fanout::underflows            0      0.00%      0.00% # Request fanout histogram
system.tol2bus15.snoop_fanout::0              4512201     93.17%     93.17% # Request fanout histogram
system.tol2bus15.snoop_fanout::1               331000      6.83%    100.00% # Request fanout histogram
system.tol2bus15.snoop_fanout::2                    0      0.00%    100.00% # Request fanout histogram
system.tol2bus15.snoop_fanout::overflows            0      0.00%    100.00% # Request fanout histogram
system.tol2bus15.snoop_fanout::min_value            0                       # Request fanout histogram
system.tol2bus15.snoop_fanout::max_value            1                       # Request fanout histogram
system.tol2bus15.snoop_fanout::total          4843201                       # Request fanout histogram
system.tol2bus15.directResponses                    0                       # auxiliar stat for checking how reasonable wireless model is

---------- End Simulation Statistics   ----------
