
---------- Begin Simulation Statistics ----------
sim_seconds                               2238.475183                       # Number of seconds simulated
sim_ticks                                2238475182882500                       # Number of ticks simulated
final_tick                               8985598237663500                       # Number of ticks from beginning of simulation (restored from checkpoints and never reset)
sim_freq                                 1000000000000                       # Frequency of simulated ticks
host_inst_rate                                2288475                       # Simulator instruction rate (inst/s)
host_op_rate                                  2562299                       # Simulator op (including micro ops) rate (op/s)
host_tick_rate                           412685758298                       # Simulator tick rate (ticks/s)
host_mem_usage                                5028492                       # Number of bytes of host memory used
host_seconds                                  5424.16                       # Real time elapsed on the host
sim_insts                                 12413065760                       # Number of instructions simulated
sim_ops                                   13898328123                       # Number of ops (including micro ops) simulated
system.voltage_domain.voltage                       1                       # Voltage in Volts
system.clk_domain.clock                           625                       # Clock period in ticks
system.bootmem.pwrStateResidencyTicks::UNDEFINED 8985598237663500                       # Cumulative time (in ticks) in various power states
system.mem_ctrls.pwrStateResidencyTicks::UNDEFINED 8985598237663500                       # Cumulative time (in ticks) in various power states
system.mem_ctrls.bytes_read::cpu00.dtb.walker        92928                       # Number of bytes read from this memory
system.mem_ctrls.bytes_read::cpu00.itb.walker        53056                       # Number of bytes read from this memory
system.mem_ctrls.bytes_read::cpu00.inst       2462656                       # Number of bytes read from this memory
system.mem_ctrls.bytes_read::cpu00.data       7333568                       # Number of bytes read from this memory
system.mem_ctrls.bytes_read::cpu01.dtb.walker       110848                       # Number of bytes read from this memory
system.mem_ctrls.bytes_read::cpu01.itb.walker        32320                       # Number of bytes read from this memory
system.mem_ctrls.bytes_read::cpu01.inst        969600                       # Number of bytes read from this memory
system.mem_ctrls.bytes_read::cpu01.data       5038784                       # Number of bytes read from this memory
system.mem_ctrls.bytes_read::cpu02.dtb.walker        64512                       # Number of bytes read from this memory
system.mem_ctrls.bytes_read::cpu02.itb.walker        12224                       # Number of bytes read from this memory
system.mem_ctrls.bytes_read::cpu02.inst       2345856                       # Number of bytes read from this memory
system.mem_ctrls.bytes_read::cpu02.data       7770944                       # Number of bytes read from this memory
system.mem_ctrls.bytes_read::cpu03.dtb.walker        83328                       # Number of bytes read from this memory
system.mem_ctrls.bytes_read::cpu03.itb.walker        18176                       # Number of bytes read from this memory
system.mem_ctrls.bytes_read::cpu03.inst       1390528                       # Number of bytes read from this memory
system.mem_ctrls.bytes_read::cpu03.data       5958208                       # Number of bytes read from this memory
system.mem_ctrls.bytes_read::cpu04.dtb.walker       157184                       # Number of bytes read from this memory
system.mem_ctrls.bytes_read::cpu04.itb.walker        40896                       # Number of bytes read from this memory
system.mem_ctrls.bytes_read::cpu04.inst        934528                       # Number of bytes read from this memory
system.mem_ctrls.bytes_read::cpu04.data       4846528                       # Number of bytes read from this memory
system.mem_ctrls.bytes_read::cpu05.dtb.walker        65472                       # Number of bytes read from this memory
system.mem_ctrls.bytes_read::cpu05.itb.walker        13824                       # Number of bytes read from this memory
system.mem_ctrls.bytes_read::cpu05.inst        960192                       # Number of bytes read from this memory
system.mem_ctrls.bytes_read::cpu05.data       5376640                       # Number of bytes read from this memory
system.mem_ctrls.bytes_read::cpu06.dtb.walker        55552                       # Number of bytes read from this memory
system.mem_ctrls.bytes_read::cpu06.itb.walker        30336                       # Number of bytes read from this memory
system.mem_ctrls.bytes_read::cpu06.inst       1471744                       # Number of bytes read from this memory
system.mem_ctrls.bytes_read::cpu06.data       5009536                       # Number of bytes read from this memory
system.mem_ctrls.bytes_read::cpu07.dtb.walker        44416                       # Number of bytes read from this memory
system.mem_ctrls.bytes_read::cpu07.itb.walker        13312                       # Number of bytes read from this memory
system.mem_ctrls.bytes_read::cpu07.inst        758848                       # Number of bytes read from this memory
system.mem_ctrls.bytes_read::cpu07.data       4137344                       # Number of bytes read from this memory
system.mem_ctrls.bytes_read::cpu08.dtb.walker        41152                       # Number of bytes read from this memory
system.mem_ctrls.bytes_read::cpu08.itb.walker        11008                       # Number of bytes read from this memory
system.mem_ctrls.bytes_read::cpu08.inst        714816                       # Number of bytes read from this memory
system.mem_ctrls.bytes_read::cpu08.data       4627072                       # Number of bytes read from this memory
system.mem_ctrls.bytes_read::cpu09.dtb.walker        62080                       # Number of bytes read from this memory
system.mem_ctrls.bytes_read::cpu09.itb.walker         5952                       # Number of bytes read from this memory
system.mem_ctrls.bytes_read::cpu09.inst        897344                       # Number of bytes read from this memory
system.mem_ctrls.bytes_read::cpu09.data       5981824                       # Number of bytes read from this memory
system.mem_ctrls.bytes_read::cpu10.dtb.walker        57536                       # Number of bytes read from this memory
system.mem_ctrls.bytes_read::cpu10.itb.walker        10240                       # Number of bytes read from this memory
system.mem_ctrls.bytes_read::cpu10.inst        541504                       # Number of bytes read from this memory
system.mem_ctrls.bytes_read::cpu10.data       5055232                       # Number of bytes read from this memory
system.mem_ctrls.bytes_read::cpu11.dtb.walker        71232                       # Number of bytes read from this memory
system.mem_ctrls.bytes_read::cpu11.itb.walker         5568                       # Number of bytes read from this memory
system.mem_ctrls.bytes_read::cpu11.inst        810688                       # Number of bytes read from this memory
system.mem_ctrls.bytes_read::cpu11.data       5187584                       # Number of bytes read from this memory
system.mem_ctrls.bytes_read::cpu12.dtb.walker        82240                       # Number of bytes read from this memory
system.mem_ctrls.bytes_read::cpu12.itb.walker        25280                       # Number of bytes read from this memory
system.mem_ctrls.bytes_read::cpu12.inst        795840                       # Number of bytes read from this memory
system.mem_ctrls.bytes_read::cpu12.data       4484096                       # Number of bytes read from this memory
system.mem_ctrls.bytes_read::cpu13.dtb.walker        97728                       # Number of bytes read from this memory
system.mem_ctrls.bytes_read::cpu13.itb.walker        44160                       # Number of bytes read from this memory
system.mem_ctrls.bytes_read::cpu13.inst       1381184                       # Number of bytes read from this memory
system.mem_ctrls.bytes_read::cpu13.data       6648896                       # Number of bytes read from this memory
system.mem_ctrls.bytes_read::cpu14.dtb.walker       738240                       # Number of bytes read from this memory
system.mem_ctrls.bytes_read::cpu14.itb.walker       680960                       # Number of bytes read from this memory
system.mem_ctrls.bytes_read::cpu14.inst      13931072                       # Number of bytes read from this memory
system.mem_ctrls.bytes_read::cpu14.data      14898944                       # Number of bytes read from this memory
system.mem_ctrls.bytes_read::cpu15.dtb.walker        59968                       # Number of bytes read from this memory
system.mem_ctrls.bytes_read::cpu15.itb.walker        15296                       # Number of bytes read from this memory
system.mem_ctrls.bytes_read::cpu15.inst       1023488                       # Number of bytes read from this memory
system.mem_ctrls.bytes_read::cpu15.data       4556800                       # Number of bytes read from this memory
system.mem_ctrls.bytes_read::total          131198912                       # Number of bytes read from this memory
system.mem_ctrls.bytes_inst_read::cpu00.inst      2462656                       # Number of instructions bytes read from this memory
system.mem_ctrls.bytes_inst_read::cpu01.inst       969600                       # Number of instructions bytes read from this memory
system.mem_ctrls.bytes_inst_read::cpu02.inst      2345856                       # Number of instructions bytes read from this memory
system.mem_ctrls.bytes_inst_read::cpu03.inst      1390528                       # Number of instructions bytes read from this memory
system.mem_ctrls.bytes_inst_read::cpu04.inst       934528                       # Number of instructions bytes read from this memory
system.mem_ctrls.bytes_inst_read::cpu05.inst       960192                       # Number of instructions bytes read from this memory
system.mem_ctrls.bytes_inst_read::cpu06.inst      1471744                       # Number of instructions bytes read from this memory
system.mem_ctrls.bytes_inst_read::cpu07.inst       758848                       # Number of instructions bytes read from this memory
system.mem_ctrls.bytes_inst_read::cpu08.inst       714816                       # Number of instructions bytes read from this memory
system.mem_ctrls.bytes_inst_read::cpu09.inst       897344                       # Number of instructions bytes read from this memory
system.mem_ctrls.bytes_inst_read::cpu10.inst       541504                       # Number of instructions bytes read from this memory
system.mem_ctrls.bytes_inst_read::cpu11.inst       810688                       # Number of instructions bytes read from this memory
system.mem_ctrls.bytes_inst_read::cpu12.inst       795840                       # Number of instructions bytes read from this memory
system.mem_ctrls.bytes_inst_read::cpu13.inst      1381184                       # Number of instructions bytes read from this memory
system.mem_ctrls.bytes_inst_read::cpu14.inst     13931072                       # Number of instructions bytes read from this memory
system.mem_ctrls.bytes_inst_read::cpu15.inst      1023488                       # Number of instructions bytes read from this memory
system.mem_ctrls.bytes_inst_read::total      31389888                       # Number of instructions bytes read from this memory
system.mem_ctrls.bytes_written::writebacks     74495552                       # Number of bytes written to this memory
system.mem_ctrls.bytes_written::total        74495552                       # Number of bytes written to this memory
system.mem_ctrls.num_reads::cpu00.dtb.walker         1452                       # Number of read requests responded to by this memory
system.mem_ctrls.num_reads::cpu00.itb.walker          829                       # Number of read requests responded to by this memory
system.mem_ctrls.num_reads::cpu00.inst          38479                       # Number of read requests responded to by this memory
system.mem_ctrls.num_reads::cpu00.data         114587                       # Number of read requests responded to by this memory
system.mem_ctrls.num_reads::cpu01.dtb.walker         1732                       # Number of read requests responded to by this memory
system.mem_ctrls.num_reads::cpu01.itb.walker          505                       # Number of read requests responded to by this memory
system.mem_ctrls.num_reads::cpu01.inst          15150                       # Number of read requests responded to by this memory
system.mem_ctrls.num_reads::cpu01.data          78731                       # Number of read requests responded to by this memory
system.mem_ctrls.num_reads::cpu02.dtb.walker         1008                       # Number of read requests responded to by this memory
system.mem_ctrls.num_reads::cpu02.itb.walker          191                       # Number of read requests responded to by this memory
system.mem_ctrls.num_reads::cpu02.inst          36654                       # Number of read requests responded to by this memory
system.mem_ctrls.num_reads::cpu02.data         121421                       # Number of read requests responded to by this memory
system.mem_ctrls.num_reads::cpu03.dtb.walker         1302                       # Number of read requests responded to by this memory
system.mem_ctrls.num_reads::cpu03.itb.walker          284                       # Number of read requests responded to by this memory
system.mem_ctrls.num_reads::cpu03.inst          21727                       # Number of read requests responded to by this memory
system.mem_ctrls.num_reads::cpu03.data          93097                       # Number of read requests responded to by this memory
system.mem_ctrls.num_reads::cpu04.dtb.walker         2456                       # Number of read requests responded to by this memory
system.mem_ctrls.num_reads::cpu04.itb.walker          639                       # Number of read requests responded to by this memory
system.mem_ctrls.num_reads::cpu04.inst          14602                       # Number of read requests responded to by this memory
system.mem_ctrls.num_reads::cpu04.data          75727                       # Number of read requests responded to by this memory
system.mem_ctrls.num_reads::cpu05.dtb.walker         1023                       # Number of read requests responded to by this memory
system.mem_ctrls.num_reads::cpu05.itb.walker          216                       # Number of read requests responded to by this memory
system.mem_ctrls.num_reads::cpu05.inst          15003                       # Number of read requests responded to by this memory
system.mem_ctrls.num_reads::cpu05.data          84010                       # Number of read requests responded to by this memory
system.mem_ctrls.num_reads::cpu06.dtb.walker          868                       # Number of read requests responded to by this memory
system.mem_ctrls.num_reads::cpu06.itb.walker          474                       # Number of read requests responded to by this memory
system.mem_ctrls.num_reads::cpu06.inst          22996                       # Number of read requests responded to by this memory
system.mem_ctrls.num_reads::cpu06.data          78274                       # Number of read requests responded to by this memory
system.mem_ctrls.num_reads::cpu07.dtb.walker          694                       # Number of read requests responded to by this memory
system.mem_ctrls.num_reads::cpu07.itb.walker          208                       # Number of read requests responded to by this memory
system.mem_ctrls.num_reads::cpu07.inst          11857                       # Number of read requests responded to by this memory
system.mem_ctrls.num_reads::cpu07.data          64646                       # Number of read requests responded to by this memory
system.mem_ctrls.num_reads::cpu08.dtb.walker          643                       # Number of read requests responded to by this memory
system.mem_ctrls.num_reads::cpu08.itb.walker          172                       # Number of read requests responded to by this memory
system.mem_ctrls.num_reads::cpu08.inst          11169                       # Number of read requests responded to by this memory
system.mem_ctrls.num_reads::cpu08.data          72298                       # Number of read requests responded to by this memory
system.mem_ctrls.num_reads::cpu09.dtb.walker          970                       # Number of read requests responded to by this memory
system.mem_ctrls.num_reads::cpu09.itb.walker           93                       # Number of read requests responded to by this memory
system.mem_ctrls.num_reads::cpu09.inst          14021                       # Number of read requests responded to by this memory
system.mem_ctrls.num_reads::cpu09.data          93466                       # Number of read requests responded to by this memory
system.mem_ctrls.num_reads::cpu10.dtb.walker          899                       # Number of read requests responded to by this memory
system.mem_ctrls.num_reads::cpu10.itb.walker          160                       # Number of read requests responded to by this memory
system.mem_ctrls.num_reads::cpu10.inst           8461                       # Number of read requests responded to by this memory
system.mem_ctrls.num_reads::cpu10.data          78988                       # Number of read requests responded to by this memory
system.mem_ctrls.num_reads::cpu11.dtb.walker         1113                       # Number of read requests responded to by this memory
system.mem_ctrls.num_reads::cpu11.itb.walker           87                       # Number of read requests responded to by this memory
system.mem_ctrls.num_reads::cpu11.inst          12667                       # Number of read requests responded to by this memory
system.mem_ctrls.num_reads::cpu11.data          81056                       # Number of read requests responded to by this memory
system.mem_ctrls.num_reads::cpu12.dtb.walker         1285                       # Number of read requests responded to by this memory
system.mem_ctrls.num_reads::cpu12.itb.walker          395                       # Number of read requests responded to by this memory
system.mem_ctrls.num_reads::cpu12.inst          12435                       # Number of read requests responded to by this memory
system.mem_ctrls.num_reads::cpu12.data          70064                       # Number of read requests responded to by this memory
system.mem_ctrls.num_reads::cpu13.dtb.walker         1527                       # Number of read requests responded to by this memory
system.mem_ctrls.num_reads::cpu13.itb.walker          690                       # Number of read requests responded to by this memory
system.mem_ctrls.num_reads::cpu13.inst          21581                       # Number of read requests responded to by this memory
system.mem_ctrls.num_reads::cpu13.data         103889                       # Number of read requests responded to by this memory
system.mem_ctrls.num_reads::cpu14.dtb.walker        11535                       # Number of read requests responded to by this memory
system.mem_ctrls.num_reads::cpu14.itb.walker        10640                       # Number of read requests responded to by this memory
system.mem_ctrls.num_reads::cpu14.inst         217673                       # Number of read requests responded to by this memory
system.mem_ctrls.num_reads::cpu14.data         232796                       # Number of read requests responded to by this memory
system.mem_ctrls.num_reads::cpu15.dtb.walker          937                       # Number of read requests responded to by this memory
system.mem_ctrls.num_reads::cpu15.itb.walker          239                       # Number of read requests responded to by this memory
system.mem_ctrls.num_reads::cpu15.inst          15992                       # Number of read requests responded to by this memory
system.mem_ctrls.num_reads::cpu15.data          71200                       # Number of read requests responded to by this memory
system.mem_ctrls.num_reads::total             2049983                       # Number of read requests responded to by this memory
system.mem_ctrls.num_writes::writebacks       1163993                       # Number of write requests responded to by this memory
system.mem_ctrls.num_writes::total            1163993                       # Number of write requests responded to by this memory
system.mem_ctrls.bw_read::cpu00.dtb.walker           42                       # Total read bandwidth from this memory (bytes/s)
system.mem_ctrls.bw_read::cpu00.itb.walker           24                       # Total read bandwidth from this memory (bytes/s)
system.mem_ctrls.bw_read::cpu00.inst             1100                       # Total read bandwidth from this memory (bytes/s)
system.mem_ctrls.bw_read::cpu00.data             3276                       # Total read bandwidth from this memory (bytes/s)
system.mem_ctrls.bw_read::cpu01.dtb.walker           50                       # Total read bandwidth from this memory (bytes/s)
system.mem_ctrls.bw_read::cpu01.itb.walker           14                       # Total read bandwidth from this memory (bytes/s)
system.mem_ctrls.bw_read::cpu01.inst              433                       # Total read bandwidth from this memory (bytes/s)
system.mem_ctrls.bw_read::cpu01.data             2251                       # Total read bandwidth from this memory (bytes/s)
system.mem_ctrls.bw_read::cpu02.dtb.walker           29                       # Total read bandwidth from this memory (bytes/s)
system.mem_ctrls.bw_read::cpu02.itb.walker            5                       # Total read bandwidth from this memory (bytes/s)
system.mem_ctrls.bw_read::cpu02.inst             1048                       # Total read bandwidth from this memory (bytes/s)
system.mem_ctrls.bw_read::cpu02.data             3472                       # Total read bandwidth from this memory (bytes/s)
system.mem_ctrls.bw_read::cpu03.dtb.walker           37                       # Total read bandwidth from this memory (bytes/s)
system.mem_ctrls.bw_read::cpu03.itb.walker            8                       # Total read bandwidth from this memory (bytes/s)
system.mem_ctrls.bw_read::cpu03.inst              621                       # Total read bandwidth from this memory (bytes/s)
system.mem_ctrls.bw_read::cpu03.data             2662                       # Total read bandwidth from this memory (bytes/s)
system.mem_ctrls.bw_read::cpu04.dtb.walker           70                       # Total read bandwidth from this memory (bytes/s)
system.mem_ctrls.bw_read::cpu04.itb.walker           18                       # Total read bandwidth from this memory (bytes/s)
system.mem_ctrls.bw_read::cpu04.inst              417                       # Total read bandwidth from this memory (bytes/s)
system.mem_ctrls.bw_read::cpu04.data             2165                       # Total read bandwidth from this memory (bytes/s)
system.mem_ctrls.bw_read::cpu05.dtb.walker           29                       # Total read bandwidth from this memory (bytes/s)
system.mem_ctrls.bw_read::cpu05.itb.walker            6                       # Total read bandwidth from this memory (bytes/s)
system.mem_ctrls.bw_read::cpu05.inst              429                       # Total read bandwidth from this memory (bytes/s)
system.mem_ctrls.bw_read::cpu05.data             2402                       # Total read bandwidth from this memory (bytes/s)
system.mem_ctrls.bw_read::cpu06.dtb.walker           25                       # Total read bandwidth from this memory (bytes/s)
system.mem_ctrls.bw_read::cpu06.itb.walker           14                       # Total read bandwidth from this memory (bytes/s)
system.mem_ctrls.bw_read::cpu06.inst              657                       # Total read bandwidth from this memory (bytes/s)
system.mem_ctrls.bw_read::cpu06.data             2238                       # Total read bandwidth from this memory (bytes/s)
system.mem_ctrls.bw_read::cpu07.dtb.walker           20                       # Total read bandwidth from this memory (bytes/s)
system.mem_ctrls.bw_read::cpu07.itb.walker            6                       # Total read bandwidth from this memory (bytes/s)
system.mem_ctrls.bw_read::cpu07.inst              339                       # Total read bandwidth from this memory (bytes/s)
system.mem_ctrls.bw_read::cpu07.data             1848                       # Total read bandwidth from this memory (bytes/s)
system.mem_ctrls.bw_read::cpu08.dtb.walker           18                       # Total read bandwidth from this memory (bytes/s)
system.mem_ctrls.bw_read::cpu08.itb.walker            5                       # Total read bandwidth from this memory (bytes/s)
system.mem_ctrls.bw_read::cpu08.inst              319                       # Total read bandwidth from this memory (bytes/s)
system.mem_ctrls.bw_read::cpu08.data             2067                       # Total read bandwidth from this memory (bytes/s)
system.mem_ctrls.bw_read::cpu09.dtb.walker           28                       # Total read bandwidth from this memory (bytes/s)
system.mem_ctrls.bw_read::cpu09.itb.walker            3                       # Total read bandwidth from this memory (bytes/s)
system.mem_ctrls.bw_read::cpu09.inst              401                       # Total read bandwidth from this memory (bytes/s)
system.mem_ctrls.bw_read::cpu09.data             2672                       # Total read bandwidth from this memory (bytes/s)
system.mem_ctrls.bw_read::cpu10.dtb.walker           26                       # Total read bandwidth from this memory (bytes/s)
system.mem_ctrls.bw_read::cpu10.itb.walker            5                       # Total read bandwidth from this memory (bytes/s)
system.mem_ctrls.bw_read::cpu10.inst              242                       # Total read bandwidth from this memory (bytes/s)
system.mem_ctrls.bw_read::cpu10.data             2258                       # Total read bandwidth from this memory (bytes/s)
system.mem_ctrls.bw_read::cpu11.dtb.walker           32                       # Total read bandwidth from this memory (bytes/s)
system.mem_ctrls.bw_read::cpu11.itb.walker            2                       # Total read bandwidth from this memory (bytes/s)
system.mem_ctrls.bw_read::cpu11.inst              362                       # Total read bandwidth from this memory (bytes/s)
system.mem_ctrls.bw_read::cpu11.data             2317                       # Total read bandwidth from this memory (bytes/s)
system.mem_ctrls.bw_read::cpu12.dtb.walker           37                       # Total read bandwidth from this memory (bytes/s)
system.mem_ctrls.bw_read::cpu12.itb.walker           11                       # Total read bandwidth from this memory (bytes/s)
system.mem_ctrls.bw_read::cpu12.inst              356                       # Total read bandwidth from this memory (bytes/s)
system.mem_ctrls.bw_read::cpu12.data             2003                       # Total read bandwidth from this memory (bytes/s)
system.mem_ctrls.bw_read::cpu13.dtb.walker           44                       # Total read bandwidth from this memory (bytes/s)
system.mem_ctrls.bw_read::cpu13.itb.walker           20                       # Total read bandwidth from this memory (bytes/s)
system.mem_ctrls.bw_read::cpu13.inst              617                       # Total read bandwidth from this memory (bytes/s)
system.mem_ctrls.bw_read::cpu13.data             2970                       # Total read bandwidth from this memory (bytes/s)
system.mem_ctrls.bw_read::cpu14.dtb.walker          330                       # Total read bandwidth from this memory (bytes/s)
system.mem_ctrls.bw_read::cpu14.itb.walker          304                       # Total read bandwidth from this memory (bytes/s)
system.mem_ctrls.bw_read::cpu14.inst             6223                       # Total read bandwidth from this memory (bytes/s)
system.mem_ctrls.bw_read::cpu14.data             6656                       # Total read bandwidth from this memory (bytes/s)
system.mem_ctrls.bw_read::cpu15.dtb.walker           27                       # Total read bandwidth from this memory (bytes/s)
system.mem_ctrls.bw_read::cpu15.itb.walker            7                       # Total read bandwidth from this memory (bytes/s)
system.mem_ctrls.bw_read::cpu15.inst              457                       # Total read bandwidth from this memory (bytes/s)
system.mem_ctrls.bw_read::cpu15.data             2036                       # Total read bandwidth from this memory (bytes/s)
system.mem_ctrls.bw_read::total                 58611                       # Total read bandwidth from this memory (bytes/s)
system.mem_ctrls.bw_inst_read::cpu00.inst         1100                       # Instruction read bandwidth from this memory (bytes/s)
system.mem_ctrls.bw_inst_read::cpu01.inst          433                       # Instruction read bandwidth from this memory (bytes/s)
system.mem_ctrls.bw_inst_read::cpu02.inst         1048                       # Instruction read bandwidth from this memory (bytes/s)
system.mem_ctrls.bw_inst_read::cpu03.inst          621                       # Instruction read bandwidth from this memory (bytes/s)
system.mem_ctrls.bw_inst_read::cpu04.inst          417                       # Instruction read bandwidth from this memory (bytes/s)
system.mem_ctrls.bw_inst_read::cpu05.inst          429                       # Instruction read bandwidth from this memory (bytes/s)
system.mem_ctrls.bw_inst_read::cpu06.inst          657                       # Instruction read bandwidth from this memory (bytes/s)
system.mem_ctrls.bw_inst_read::cpu07.inst          339                       # Instruction read bandwidth from this memory (bytes/s)
system.mem_ctrls.bw_inst_read::cpu08.inst          319                       # Instruction read bandwidth from this memory (bytes/s)
system.mem_ctrls.bw_inst_read::cpu09.inst          401                       # Instruction read bandwidth from this memory (bytes/s)
system.mem_ctrls.bw_inst_read::cpu10.inst          242                       # Instruction read bandwidth from this memory (bytes/s)
system.mem_ctrls.bw_inst_read::cpu11.inst          362                       # Instruction read bandwidth from this memory (bytes/s)
system.mem_ctrls.bw_inst_read::cpu12.inst          356                       # Instruction read bandwidth from this memory (bytes/s)
system.mem_ctrls.bw_inst_read::cpu13.inst          617                       # Instruction read bandwidth from this memory (bytes/s)
system.mem_ctrls.bw_inst_read::cpu14.inst         6223                       # Instruction read bandwidth from this memory (bytes/s)
system.mem_ctrls.bw_inst_read::cpu15.inst          457                       # Instruction read bandwidth from this memory (bytes/s)
system.mem_ctrls.bw_inst_read::total            14023                       # Instruction read bandwidth from this memory (bytes/s)
system.mem_ctrls.bw_write::writebacks           33280                       # Write bandwidth from this memory (bytes/s)
system.mem_ctrls.bw_write::total                33280                       # Write bandwidth from this memory (bytes/s)
system.mem_ctrls.bw_total::writebacks           33280                       # Total bandwidth to/from this memory (bytes/s)
system.mem_ctrls.bw_total::cpu00.dtb.walker           42                       # Total bandwidth to/from this memory (bytes/s)
system.mem_ctrls.bw_total::cpu00.itb.walker           24                       # Total bandwidth to/from this memory (bytes/s)
system.mem_ctrls.bw_total::cpu00.inst            1100                       # Total bandwidth to/from this memory (bytes/s)
system.mem_ctrls.bw_total::cpu00.data            3276                       # Total bandwidth to/from this memory (bytes/s)
system.mem_ctrls.bw_total::cpu01.dtb.walker           50                       # Total bandwidth to/from this memory (bytes/s)
system.mem_ctrls.bw_total::cpu01.itb.walker           14                       # Total bandwidth to/from this memory (bytes/s)
system.mem_ctrls.bw_total::cpu01.inst             433                       # Total bandwidth to/from this memory (bytes/s)
system.mem_ctrls.bw_total::cpu01.data            2251                       # Total bandwidth to/from this memory (bytes/s)
system.mem_ctrls.bw_total::cpu02.dtb.walker           29                       # Total bandwidth to/from this memory (bytes/s)
system.mem_ctrls.bw_total::cpu02.itb.walker            5                       # Total bandwidth to/from this memory (bytes/s)
system.mem_ctrls.bw_total::cpu02.inst            1048                       # Total bandwidth to/from this memory (bytes/s)
system.mem_ctrls.bw_total::cpu02.data            3472                       # Total bandwidth to/from this memory (bytes/s)
system.mem_ctrls.bw_total::cpu03.dtb.walker           37                       # Total bandwidth to/from this memory (bytes/s)
system.mem_ctrls.bw_total::cpu03.itb.walker            8                       # Total bandwidth to/from this memory (bytes/s)
system.mem_ctrls.bw_total::cpu03.inst             621                       # Total bandwidth to/from this memory (bytes/s)
system.mem_ctrls.bw_total::cpu03.data            2662                       # Total bandwidth to/from this memory (bytes/s)
system.mem_ctrls.bw_total::cpu04.dtb.walker           70                       # Total bandwidth to/from this memory (bytes/s)
system.mem_ctrls.bw_total::cpu04.itb.walker           18                       # Total bandwidth to/from this memory (bytes/s)
system.mem_ctrls.bw_total::cpu04.inst             417                       # Total bandwidth to/from this memory (bytes/s)
system.mem_ctrls.bw_total::cpu04.data            2165                       # Total bandwidth to/from this memory (bytes/s)
system.mem_ctrls.bw_total::cpu05.dtb.walker           29                       # Total bandwidth to/from this memory (bytes/s)
system.mem_ctrls.bw_total::cpu05.itb.walker            6                       # Total bandwidth to/from this memory (bytes/s)
system.mem_ctrls.bw_total::cpu05.inst             429                       # Total bandwidth to/from this memory (bytes/s)
system.mem_ctrls.bw_total::cpu05.data            2402                       # Total bandwidth to/from this memory (bytes/s)
system.mem_ctrls.bw_total::cpu06.dtb.walker           25                       # Total bandwidth to/from this memory (bytes/s)
system.mem_ctrls.bw_total::cpu06.itb.walker           14                       # Total bandwidth to/from this memory (bytes/s)
system.mem_ctrls.bw_total::cpu06.inst             657                       # Total bandwidth to/from this memory (bytes/s)
system.mem_ctrls.bw_total::cpu06.data            2238                       # Total bandwidth to/from this memory (bytes/s)
system.mem_ctrls.bw_total::cpu07.dtb.walker           20                       # Total bandwidth to/from this memory (bytes/s)
system.mem_ctrls.bw_total::cpu07.itb.walker            6                       # Total bandwidth to/from this memory (bytes/s)
system.mem_ctrls.bw_total::cpu07.inst             339                       # Total bandwidth to/from this memory (bytes/s)
system.mem_ctrls.bw_total::cpu07.data            1848                       # Total bandwidth to/from this memory (bytes/s)
system.mem_ctrls.bw_total::cpu08.dtb.walker           18                       # Total bandwidth to/from this memory (bytes/s)
system.mem_ctrls.bw_total::cpu08.itb.walker            5                       # Total bandwidth to/from this memory (bytes/s)
system.mem_ctrls.bw_total::cpu08.inst             319                       # Total bandwidth to/from this memory (bytes/s)
system.mem_ctrls.bw_total::cpu08.data            2067                       # Total bandwidth to/from this memory (bytes/s)
system.mem_ctrls.bw_total::cpu09.dtb.walker           28                       # Total bandwidth to/from this memory (bytes/s)
system.mem_ctrls.bw_total::cpu09.itb.walker            3                       # Total bandwidth to/from this memory (bytes/s)
system.mem_ctrls.bw_total::cpu09.inst             401                       # Total bandwidth to/from this memory (bytes/s)
system.mem_ctrls.bw_total::cpu09.data            2672                       # Total bandwidth to/from this memory (bytes/s)
system.mem_ctrls.bw_total::cpu10.dtb.walker           26                       # Total bandwidth to/from this memory (bytes/s)
system.mem_ctrls.bw_total::cpu10.itb.walker            5                       # Total bandwidth to/from this memory (bytes/s)
system.mem_ctrls.bw_total::cpu10.inst             242                       # Total bandwidth to/from this memory (bytes/s)
system.mem_ctrls.bw_total::cpu10.data            2258                       # Total bandwidth to/from this memory (bytes/s)
system.mem_ctrls.bw_total::cpu11.dtb.walker           32                       # Total bandwidth to/from this memory (bytes/s)
system.mem_ctrls.bw_total::cpu11.itb.walker            2                       # Total bandwidth to/from this memory (bytes/s)
system.mem_ctrls.bw_total::cpu11.inst             362                       # Total bandwidth to/from this memory (bytes/s)
system.mem_ctrls.bw_total::cpu11.data            2317                       # Total bandwidth to/from this memory (bytes/s)
system.mem_ctrls.bw_total::cpu12.dtb.walker           37                       # Total bandwidth to/from this memory (bytes/s)
system.mem_ctrls.bw_total::cpu12.itb.walker           11                       # Total bandwidth to/from this memory (bytes/s)
system.mem_ctrls.bw_total::cpu12.inst             356                       # Total bandwidth to/from this memory (bytes/s)
system.mem_ctrls.bw_total::cpu12.data            2003                       # Total bandwidth to/from this memory (bytes/s)
system.mem_ctrls.bw_total::cpu13.dtb.walker           44                       # Total bandwidth to/from this memory (bytes/s)
system.mem_ctrls.bw_total::cpu13.itb.walker           20                       # Total bandwidth to/from this memory (bytes/s)
system.mem_ctrls.bw_total::cpu13.inst             617                       # Total bandwidth to/from this memory (bytes/s)
system.mem_ctrls.bw_total::cpu13.data            2970                       # Total bandwidth to/from this memory (bytes/s)
system.mem_ctrls.bw_total::cpu14.dtb.walker          330                       # Total bandwidth to/from this memory (bytes/s)
system.mem_ctrls.bw_total::cpu14.itb.walker          304                       # Total bandwidth to/from this memory (bytes/s)
system.mem_ctrls.bw_total::cpu14.inst            6223                       # Total bandwidth to/from this memory (bytes/s)
system.mem_ctrls.bw_total::cpu14.data            6656                       # Total bandwidth to/from this memory (bytes/s)
system.mem_ctrls.bw_total::cpu15.dtb.walker           27                       # Total bandwidth to/from this memory (bytes/s)
system.mem_ctrls.bw_total::cpu15.itb.walker            7                       # Total bandwidth to/from this memory (bytes/s)
system.mem_ctrls.bw_total::cpu15.inst             457                       # Total bandwidth to/from this memory (bytes/s)
system.mem_ctrls.bw_total::cpu15.data            2036                       # Total bandwidth to/from this memory (bytes/s)
system.mem_ctrls.bw_total::total                91890                       # Total bandwidth to/from this memory (bytes/s)
system.mem_ctrls.readReqs                           0                       # Number of read requests accepted
system.mem_ctrls.writeReqs                          0                       # Number of write requests accepted
system.mem_ctrls.readBursts                         0                       # Number of DRAM read bursts, including those serviced by the write queue
system.mem_ctrls.writeBursts                        0                       # Number of DRAM write bursts, including those merged in the write queue
system.mem_ctrls.bytesReadDRAM                      0                       # Total number of bytes read from DRAM
system.mem_ctrls.bytesReadWrQ                       0                       # Total number of bytes read from write queue
system.mem_ctrls.bytesWritten                       0                       # Total number of bytes written to DRAM
system.mem_ctrls.bytesReadSys                       0                       # Total read bytes from the system interface side
system.mem_ctrls.bytesWrittenSys                    0                       # Total written bytes from the system interface side
system.mem_ctrls.servicedByWrQ                      0                       # Number of DRAM read bursts serviced by the write queue
system.mem_ctrls.mergedWrBursts                     0                       # Number of DRAM write bursts merged with an existing one
system.mem_ctrls.neitherReadNorWriteReqs            0                       # Number of requests that are neither read nor write
system.mem_ctrls.perBankRdBursts::0                 0                       # Per bank write bursts
system.mem_ctrls.perBankRdBursts::1                 0                       # Per bank write bursts
system.mem_ctrls.perBankRdBursts::2                 0                       # Per bank write bursts
system.mem_ctrls.perBankRdBursts::3                 0                       # Per bank write bursts
system.mem_ctrls.perBankRdBursts::4                 0                       # Per bank write bursts
system.mem_ctrls.perBankRdBursts::5                 0                       # Per bank write bursts
system.mem_ctrls.perBankRdBursts::6                 0                       # Per bank write bursts
system.mem_ctrls.perBankRdBursts::7                 0                       # Per bank write bursts
system.mem_ctrls.perBankRdBursts::8                 0                       # Per bank write bursts
system.mem_ctrls.perBankRdBursts::9                 0                       # Per bank write bursts
system.mem_ctrls.perBankRdBursts::10                0                       # Per bank write bursts
system.mem_ctrls.perBankRdBursts::11                0                       # Per bank write bursts
system.mem_ctrls.perBankRdBursts::12                0                       # Per bank write bursts
system.mem_ctrls.perBankRdBursts::13                0                       # Per bank write bursts
system.mem_ctrls.perBankRdBursts::14                0                       # Per bank write bursts
system.mem_ctrls.perBankRdBursts::15                0                       # Per bank write bursts
system.mem_ctrls.perBankRdBursts::16                0                       # Per bank write bursts
system.mem_ctrls.perBankRdBursts::17                0                       # Per bank write bursts
system.mem_ctrls.perBankRdBursts::18                0                       # Per bank write bursts
system.mem_ctrls.perBankRdBursts::19                0                       # Per bank write bursts
system.mem_ctrls.perBankRdBursts::20                0                       # Per bank write bursts
system.mem_ctrls.perBankRdBursts::21                0                       # Per bank write bursts
system.mem_ctrls.perBankRdBursts::22                0                       # Per bank write bursts
system.mem_ctrls.perBankRdBursts::23                0                       # Per bank write bursts
system.mem_ctrls.perBankRdBursts::24                0                       # Per bank write bursts
system.mem_ctrls.perBankRdBursts::25                0                       # Per bank write bursts
system.mem_ctrls.perBankRdBursts::26                0                       # Per bank write bursts
system.mem_ctrls.perBankRdBursts::27                0                       # Per bank write bursts
system.mem_ctrls.perBankRdBursts::28                0                       # Per bank write bursts
system.mem_ctrls.perBankRdBursts::29                0                       # Per bank write bursts
system.mem_ctrls.perBankRdBursts::30                0                       # Per bank write bursts
system.mem_ctrls.perBankRdBursts::31                0                       # Per bank write bursts
system.mem_ctrls.perBankWrBursts::0                 0                       # Per bank write bursts
system.mem_ctrls.perBankWrBursts::1                 0                       # Per bank write bursts
system.mem_ctrls.perBankWrBursts::2                 0                       # Per bank write bursts
system.mem_ctrls.perBankWrBursts::3                 0                       # Per bank write bursts
system.mem_ctrls.perBankWrBursts::4                 0                       # Per bank write bursts
system.mem_ctrls.perBankWrBursts::5                 0                       # Per bank write bursts
system.mem_ctrls.perBankWrBursts::6                 0                       # Per bank write bursts
system.mem_ctrls.perBankWrBursts::7                 0                       # Per bank write bursts
system.mem_ctrls.perBankWrBursts::8                 0                       # Per bank write bursts
system.mem_ctrls.perBankWrBursts::9                 0                       # Per bank write bursts
system.mem_ctrls.perBankWrBursts::10                0                       # Per bank write bursts
system.mem_ctrls.perBankWrBursts::11                0                       # Per bank write bursts
system.mem_ctrls.perBankWrBursts::12                0                       # Per bank write bursts
system.mem_ctrls.perBankWrBursts::13                0                       # Per bank write bursts
system.mem_ctrls.perBankWrBursts::14                0                       # Per bank write bursts
system.mem_ctrls.perBankWrBursts::15                0                       # Per bank write bursts
system.mem_ctrls.perBankWrBursts::16                0                       # Per bank write bursts
system.mem_ctrls.perBankWrBursts::17                0                       # Per bank write bursts
system.mem_ctrls.perBankWrBursts::18                0                       # Per bank write bursts
system.mem_ctrls.perBankWrBursts::19                0                       # Per bank write bursts
system.mem_ctrls.perBankWrBursts::20                0                       # Per bank write bursts
system.mem_ctrls.perBankWrBursts::21                0                       # Per bank write bursts
system.mem_ctrls.perBankWrBursts::22                0                       # Per bank write bursts
system.mem_ctrls.perBankWrBursts::23                0                       # Per bank write bursts
system.mem_ctrls.perBankWrBursts::24                0                       # Per bank write bursts
system.mem_ctrls.perBankWrBursts::25                0                       # Per bank write bursts
system.mem_ctrls.perBankWrBursts::26                0                       # Per bank write bursts
system.mem_ctrls.perBankWrBursts::27                0                       # Per bank write bursts
system.mem_ctrls.perBankWrBursts::28                0                       # Per bank write bursts
system.mem_ctrls.perBankWrBursts::29                0                       # Per bank write bursts
system.mem_ctrls.perBankWrBursts::30                0                       # Per bank write bursts
system.mem_ctrls.perBankWrBursts::31                0                       # Per bank write bursts
system.mem_ctrls.numRdRetry                         0                       # Number of times read queue was full causing retry
system.mem_ctrls.numWrRetry                         0                       # Number of times write queue was full causing retry
system.mem_ctrls.totGap                             0                       # Total gap between requests
system.mem_ctrls.readPktSize::0                     0                       # Read request sizes (log2)
system.mem_ctrls.readPktSize::1                     0                       # Read request sizes (log2)
system.mem_ctrls.readPktSize::2                     0                       # Read request sizes (log2)
system.mem_ctrls.readPktSize::3                     0                       # Read request sizes (log2)
system.mem_ctrls.readPktSize::4                     0                       # Read request sizes (log2)
system.mem_ctrls.readPktSize::5                     0                       # Read request sizes (log2)
system.mem_ctrls.readPktSize::6                     0                       # Read request sizes (log2)
system.mem_ctrls.writePktSize::0                    0                       # Write request sizes (log2)
system.mem_ctrls.writePktSize::1                    0                       # Write request sizes (log2)
system.mem_ctrls.writePktSize::2                    0                       # Write request sizes (log2)
system.mem_ctrls.writePktSize::3                    0                       # Write request sizes (log2)
system.mem_ctrls.writePktSize::4                    0                       # Write request sizes (log2)
system.mem_ctrls.writePktSize::5                    0                       # Write request sizes (log2)
system.mem_ctrls.writePktSize::6                    0                       # Write request sizes (log2)
system.mem_ctrls.rdQLenPdf::0                       0                       # What read queue length does an incoming req see
system.mem_ctrls.rdQLenPdf::1                       0                       # What read queue length does an incoming req see
system.mem_ctrls.rdQLenPdf::2                       0                       # What read queue length does an incoming req see
system.mem_ctrls.rdQLenPdf::3                       0                       # What read queue length does an incoming req see
system.mem_ctrls.rdQLenPdf::4                       0                       # What read queue length does an incoming req see
system.mem_ctrls.rdQLenPdf::5                       0                       # What read queue length does an incoming req see
system.mem_ctrls.rdQLenPdf::6                       0                       # What read queue length does an incoming req see
system.mem_ctrls.rdQLenPdf::7                       0                       # What read queue length does an incoming req see
system.mem_ctrls.rdQLenPdf::8                       0                       # What read queue length does an incoming req see
system.mem_ctrls.rdQLenPdf::9                       0                       # What read queue length does an incoming req see
system.mem_ctrls.rdQLenPdf::10                      0                       # What read queue length does an incoming req see
system.mem_ctrls.rdQLenPdf::11                      0                       # What read queue length does an incoming req see
system.mem_ctrls.rdQLenPdf::12                      0                       # What read queue length does an incoming req see
system.mem_ctrls.rdQLenPdf::13                      0                       # What read queue length does an incoming req see
system.mem_ctrls.rdQLenPdf::14                      0                       # What read queue length does an incoming req see
system.mem_ctrls.rdQLenPdf::15                      0                       # What read queue length does an incoming req see
system.mem_ctrls.rdQLenPdf::16                      0                       # What read queue length does an incoming req see
system.mem_ctrls.rdQLenPdf::17                      0                       # What read queue length does an incoming req see
system.mem_ctrls.rdQLenPdf::18                      0                       # What read queue length does an incoming req see
system.mem_ctrls.rdQLenPdf::19                      0                       # What read queue length does an incoming req see
system.mem_ctrls.rdQLenPdf::20                      0                       # What read queue length does an incoming req see
system.mem_ctrls.rdQLenPdf::21                      0                       # What read queue length does an incoming req see
system.mem_ctrls.rdQLenPdf::22                      0                       # What read queue length does an incoming req see
system.mem_ctrls.rdQLenPdf::23                      0                       # What read queue length does an incoming req see
system.mem_ctrls.rdQLenPdf::24                      0                       # What read queue length does an incoming req see
system.mem_ctrls.rdQLenPdf::25                      0                       # What read queue length does an incoming req see
system.mem_ctrls.rdQLenPdf::26                      0                       # What read queue length does an incoming req see
system.mem_ctrls.rdQLenPdf::27                      0                       # What read queue length does an incoming req see
system.mem_ctrls.rdQLenPdf::28                      0                       # What read queue length does an incoming req see
system.mem_ctrls.rdQLenPdf::29                      0                       # What read queue length does an incoming req see
system.mem_ctrls.rdQLenPdf::30                      0                       # What read queue length does an incoming req see
system.mem_ctrls.rdQLenPdf::31                      0                       # What read queue length does an incoming req see
system.mem_ctrls.rdQLenPdf::32                      0                       # What read queue length does an incoming req see
system.mem_ctrls.rdQLenPdf::33                      0                       # What read queue length does an incoming req see
system.mem_ctrls.rdQLenPdf::34                      0                       # What read queue length does an incoming req see
system.mem_ctrls.rdQLenPdf::35                      0                       # What read queue length does an incoming req see
system.mem_ctrls.rdQLenPdf::36                      0                       # What read queue length does an incoming req see
system.mem_ctrls.rdQLenPdf::37                      0                       # What read queue length does an incoming req see
system.mem_ctrls.rdQLenPdf::38                      0                       # What read queue length does an incoming req see
system.mem_ctrls.rdQLenPdf::39                      0                       # What read queue length does an incoming req see
system.mem_ctrls.rdQLenPdf::40                      0                       # What read queue length does an incoming req see
system.mem_ctrls.rdQLenPdf::41                      0                       # What read queue length does an incoming req see
system.mem_ctrls.rdQLenPdf::42                      0                       # What read queue length does an incoming req see
system.mem_ctrls.rdQLenPdf::43                      0                       # What read queue length does an incoming req see
system.mem_ctrls.rdQLenPdf::44                      0                       # What read queue length does an incoming req see
system.mem_ctrls.rdQLenPdf::45                      0                       # What read queue length does an incoming req see
system.mem_ctrls.rdQLenPdf::46                      0                       # What read queue length does an incoming req see
system.mem_ctrls.rdQLenPdf::47                      0                       # What read queue length does an incoming req see
system.mem_ctrls.rdQLenPdf::48                      0                       # What read queue length does an incoming req see
system.mem_ctrls.rdQLenPdf::49                      0                       # What read queue length does an incoming req see
system.mem_ctrls.rdQLenPdf::50                      0                       # What read queue length does an incoming req see
system.mem_ctrls.rdQLenPdf::51                      0                       # What read queue length does an incoming req see
system.mem_ctrls.rdQLenPdf::52                      0                       # What read queue length does an incoming req see
system.mem_ctrls.rdQLenPdf::53                      0                       # What read queue length does an incoming req see
system.mem_ctrls.rdQLenPdf::54                      0                       # What read queue length does an incoming req see
system.mem_ctrls.rdQLenPdf::55                      0                       # What read queue length does an incoming req see
system.mem_ctrls.rdQLenPdf::56                      0                       # What read queue length does an incoming req see
system.mem_ctrls.rdQLenPdf::57                      0                       # What read queue length does an incoming req see
system.mem_ctrls.rdQLenPdf::58                      0                       # What read queue length does an incoming req see
system.mem_ctrls.rdQLenPdf::59                      0                       # What read queue length does an incoming req see
system.mem_ctrls.rdQLenPdf::60                      0                       # What read queue length does an incoming req see
system.mem_ctrls.rdQLenPdf::61                      0                       # What read queue length does an incoming req see
system.mem_ctrls.rdQLenPdf::62                      0                       # What read queue length does an incoming req see
system.mem_ctrls.rdQLenPdf::63                      0                       # What read queue length does an incoming req see
system.mem_ctrls.wrQLenPdf::0                       0                       # What write queue length does an incoming req see
system.mem_ctrls.wrQLenPdf::1                       0                       # What write queue length does an incoming req see
system.mem_ctrls.wrQLenPdf::2                       0                       # What write queue length does an incoming req see
system.mem_ctrls.wrQLenPdf::3                       0                       # What write queue length does an incoming req see
system.mem_ctrls.wrQLenPdf::4                       0                       # What write queue length does an incoming req see
system.mem_ctrls.wrQLenPdf::5                       0                       # What write queue length does an incoming req see
system.mem_ctrls.wrQLenPdf::6                       0                       # What write queue length does an incoming req see
system.mem_ctrls.wrQLenPdf::7                       0                       # What write queue length does an incoming req see
system.mem_ctrls.wrQLenPdf::8                       0                       # What write queue length does an incoming req see
system.mem_ctrls.wrQLenPdf::9                       0                       # What write queue length does an incoming req see
system.mem_ctrls.wrQLenPdf::10                      0                       # What write queue length does an incoming req see
system.mem_ctrls.wrQLenPdf::11                      0                       # What write queue length does an incoming req see
system.mem_ctrls.wrQLenPdf::12                      0                       # What write queue length does an incoming req see
system.mem_ctrls.wrQLenPdf::13                      0                       # What write queue length does an incoming req see
system.mem_ctrls.wrQLenPdf::14                      0                       # What write queue length does an incoming req see
system.mem_ctrls.wrQLenPdf::15                      0                       # What write queue length does an incoming req see
system.mem_ctrls.wrQLenPdf::16                      0                       # What write queue length does an incoming req see
system.mem_ctrls.wrQLenPdf::17                      0                       # What write queue length does an incoming req see
system.mem_ctrls.wrQLenPdf::18                      0                       # What write queue length does an incoming req see
system.mem_ctrls.wrQLenPdf::19                      0                       # What write queue length does an incoming req see
system.mem_ctrls.wrQLenPdf::20                      0                       # What write queue length does an incoming req see
system.mem_ctrls.wrQLenPdf::21                      0                       # What write queue length does an incoming req see
system.mem_ctrls.wrQLenPdf::22                      0                       # What write queue length does an incoming req see
system.mem_ctrls.wrQLenPdf::23                      0                       # What write queue length does an incoming req see
system.mem_ctrls.wrQLenPdf::24                      0                       # What write queue length does an incoming req see
system.mem_ctrls.wrQLenPdf::25                      0                       # What write queue length does an incoming req see
system.mem_ctrls.wrQLenPdf::26                      0                       # What write queue length does an incoming req see
system.mem_ctrls.wrQLenPdf::27                      0                       # What write queue length does an incoming req see
system.mem_ctrls.wrQLenPdf::28                      0                       # What write queue length does an incoming req see
system.mem_ctrls.wrQLenPdf::29                      0                       # What write queue length does an incoming req see
system.mem_ctrls.wrQLenPdf::30                      0                       # What write queue length does an incoming req see
system.mem_ctrls.wrQLenPdf::31                      0                       # What write queue length does an incoming req see
system.mem_ctrls.wrQLenPdf::32                      0                       # What write queue length does an incoming req see
system.mem_ctrls.wrQLenPdf::33                      0                       # What write queue length does an incoming req see
system.mem_ctrls.wrQLenPdf::34                      0                       # What write queue length does an incoming req see
system.mem_ctrls.wrQLenPdf::35                      0                       # What write queue length does an incoming req see
system.mem_ctrls.wrQLenPdf::36                      0                       # What write queue length does an incoming req see
system.mem_ctrls.wrQLenPdf::37                      0                       # What write queue length does an incoming req see
system.mem_ctrls.wrQLenPdf::38                      0                       # What write queue length does an incoming req see
system.mem_ctrls.wrQLenPdf::39                      0                       # What write queue length does an incoming req see
system.mem_ctrls.wrQLenPdf::40                      0                       # What write queue length does an incoming req see
system.mem_ctrls.wrQLenPdf::41                      0                       # What write queue length does an incoming req see
system.mem_ctrls.wrQLenPdf::42                      0                       # What write queue length does an incoming req see
system.mem_ctrls.wrQLenPdf::43                      0                       # What write queue length does an incoming req see
system.mem_ctrls.wrQLenPdf::44                      0                       # What write queue length does an incoming req see
system.mem_ctrls.wrQLenPdf::45                      0                       # What write queue length does an incoming req see
system.mem_ctrls.wrQLenPdf::46                      0                       # What write queue length does an incoming req see
system.mem_ctrls.wrQLenPdf::47                      0                       # What write queue length does an incoming req see
system.mem_ctrls.wrQLenPdf::48                      0                       # What write queue length does an incoming req see
system.mem_ctrls.wrQLenPdf::49                      0                       # What write queue length does an incoming req see
system.mem_ctrls.wrQLenPdf::50                      0                       # What write queue length does an incoming req see
system.mem_ctrls.wrQLenPdf::51                      0                       # What write queue length does an incoming req see
system.mem_ctrls.wrQLenPdf::52                      0                       # What write queue length does an incoming req see
system.mem_ctrls.wrQLenPdf::53                      0                       # What write queue length does an incoming req see
system.mem_ctrls.wrQLenPdf::54                      0                       # What write queue length does an incoming req see
system.mem_ctrls.wrQLenPdf::55                      0                       # What write queue length does an incoming req see
system.mem_ctrls.wrQLenPdf::56                      0                       # What write queue length does an incoming req see
system.mem_ctrls.wrQLenPdf::57                      0                       # What write queue length does an incoming req see
system.mem_ctrls.wrQLenPdf::58                      0                       # What write queue length does an incoming req see
system.mem_ctrls.wrQLenPdf::59                      0                       # What write queue length does an incoming req see
system.mem_ctrls.wrQLenPdf::60                      0                       # What write queue length does an incoming req see
system.mem_ctrls.wrQLenPdf::61                      0                       # What write queue length does an incoming req see
system.mem_ctrls.wrQLenPdf::62                      0                       # What write queue length does an incoming req see
system.mem_ctrls.wrQLenPdf::63                      0                       # What write queue length does an incoming req see
system.mem_ctrls.wrQLenPdf::64                      0                       # What write queue length does an incoming req see
system.mem_ctrls.wrQLenPdf::65                      0                       # What write queue length does an incoming req see
system.mem_ctrls.wrQLenPdf::66                      0                       # What write queue length does an incoming req see
system.mem_ctrls.wrQLenPdf::67                      0                       # What write queue length does an incoming req see
system.mem_ctrls.wrQLenPdf::68                      0                       # What write queue length does an incoming req see
system.mem_ctrls.wrQLenPdf::69                      0                       # What write queue length does an incoming req see
system.mem_ctrls.wrQLenPdf::70                      0                       # What write queue length does an incoming req see
system.mem_ctrls.wrQLenPdf::71                      0                       # What write queue length does an incoming req see
system.mem_ctrls.wrQLenPdf::72                      0                       # What write queue length does an incoming req see
system.mem_ctrls.wrQLenPdf::73                      0                       # What write queue length does an incoming req see
system.mem_ctrls.wrQLenPdf::74                      0                       # What write queue length does an incoming req see
system.mem_ctrls.wrQLenPdf::75                      0                       # What write queue length does an incoming req see
system.mem_ctrls.wrQLenPdf::76                      0                       # What write queue length does an incoming req see
system.mem_ctrls.wrQLenPdf::77                      0                       # What write queue length does an incoming req see
system.mem_ctrls.wrQLenPdf::78                      0                       # What write queue length does an incoming req see
system.mem_ctrls.wrQLenPdf::79                      0                       # What write queue length does an incoming req see
system.mem_ctrls.wrQLenPdf::80                      0                       # What write queue length does an incoming req see
system.mem_ctrls.wrQLenPdf::81                      0                       # What write queue length does an incoming req see
system.mem_ctrls.wrQLenPdf::82                      0                       # What write queue length does an incoming req see
system.mem_ctrls.wrQLenPdf::83                      0                       # What write queue length does an incoming req see
system.mem_ctrls.wrQLenPdf::84                      0                       # What write queue length does an incoming req see
system.mem_ctrls.wrQLenPdf::85                      0                       # What write queue length does an incoming req see
system.mem_ctrls.wrQLenPdf::86                      0                       # What write queue length does an incoming req see
system.mem_ctrls.wrQLenPdf::87                      0                       # What write queue length does an incoming req see
system.mem_ctrls.wrQLenPdf::88                      0                       # What write queue length does an incoming req see
system.mem_ctrls.wrQLenPdf::89                      0                       # What write queue length does an incoming req see
system.mem_ctrls.wrQLenPdf::90                      0                       # What write queue length does an incoming req see
system.mem_ctrls.wrQLenPdf::91                      0                       # What write queue length does an incoming req see
system.mem_ctrls.wrQLenPdf::92                      0                       # What write queue length does an incoming req see
system.mem_ctrls.wrQLenPdf::93                      0                       # What write queue length does an incoming req see
system.mem_ctrls.wrQLenPdf::94                      0                       # What write queue length does an incoming req see
system.mem_ctrls.wrQLenPdf::95                      0                       # What write queue length does an incoming req see
system.mem_ctrls.wrQLenPdf::96                      0                       # What write queue length does an incoming req see
system.mem_ctrls.wrQLenPdf::97                      0                       # What write queue length does an incoming req see
system.mem_ctrls.wrQLenPdf::98                      0                       # What write queue length does an incoming req see
system.mem_ctrls.wrQLenPdf::99                      0                       # What write queue length does an incoming req see
system.mem_ctrls.wrQLenPdf::100                     0                       # What write queue length does an incoming req see
system.mem_ctrls.wrQLenPdf::101                     0                       # What write queue length does an incoming req see
system.mem_ctrls.wrQLenPdf::102                     0                       # What write queue length does an incoming req see
system.mem_ctrls.wrQLenPdf::103                     0                       # What write queue length does an incoming req see
system.mem_ctrls.wrQLenPdf::104                     0                       # What write queue length does an incoming req see
system.mem_ctrls.wrQLenPdf::105                     0                       # What write queue length does an incoming req see
system.mem_ctrls.wrQLenPdf::106                     0                       # What write queue length does an incoming req see
system.mem_ctrls.wrQLenPdf::107                     0                       # What write queue length does an incoming req see
system.mem_ctrls.wrQLenPdf::108                     0                       # What write queue length does an incoming req see
system.mem_ctrls.wrQLenPdf::109                     0                       # What write queue length does an incoming req see
system.mem_ctrls.wrQLenPdf::110                     0                       # What write queue length does an incoming req see
system.mem_ctrls.wrQLenPdf::111                     0                       # What write queue length does an incoming req see
system.mem_ctrls.wrQLenPdf::112                     0                       # What write queue length does an incoming req see
system.mem_ctrls.wrQLenPdf::113                     0                       # What write queue length does an incoming req see
system.mem_ctrls.wrQLenPdf::114                     0                       # What write queue length does an incoming req see
system.mem_ctrls.wrQLenPdf::115                     0                       # What write queue length does an incoming req see
system.mem_ctrls.wrQLenPdf::116                     0                       # What write queue length does an incoming req see
system.mem_ctrls.wrQLenPdf::117                     0                       # What write queue length does an incoming req see
system.mem_ctrls.wrQLenPdf::118                     0                       # What write queue length does an incoming req see
system.mem_ctrls.wrQLenPdf::119                     0                       # What write queue length does an incoming req see
system.mem_ctrls.wrQLenPdf::120                     0                       # What write queue length does an incoming req see
system.mem_ctrls.wrQLenPdf::121                     0                       # What write queue length does an incoming req see
system.mem_ctrls.wrQLenPdf::122                     0                       # What write queue length does an incoming req see
system.mem_ctrls.wrQLenPdf::123                     0                       # What write queue length does an incoming req see
system.mem_ctrls.wrQLenPdf::124                     0                       # What write queue length does an incoming req see
system.mem_ctrls.wrQLenPdf::125                     0                       # What write queue length does an incoming req see
system.mem_ctrls.wrQLenPdf::126                     0                       # What write queue length does an incoming req see
system.mem_ctrls.wrQLenPdf::127                     0                       # What write queue length does an incoming req see
system.mem_ctrls.totQLat                            0                       # Total ticks spent queuing
system.mem_ctrls.totMemAccLat                       0                       # Total ticks spent from burst creation until serviced by the DRAM
system.mem_ctrls.totBusLat                          0                       # Total ticks spent in databus transfers
system.mem_ctrls.avgQLat                          nan                       # Average queueing delay per DRAM burst
system.mem_ctrls.avgBusLat                        nan                       # Average bus latency per DRAM burst
system.mem_ctrls.avgMemAccLat                     nan                       # Average memory access latency per DRAM burst
system.mem_ctrls.avgRdBW                         0.00                       # Average DRAM read bandwidth in MiByte/s
system.mem_ctrls.avgWrBW                         0.00                       # Average achieved write bandwidth in MiByte/s
system.mem_ctrls.avgRdBWSys                      0.00                       # Average system read bandwidth in MiByte/s
system.mem_ctrls.avgWrBWSys                      0.00                       # Average system write bandwidth in MiByte/s
system.mem_ctrls.peakBW                      19207.00                       # Theoretical peak bandwidth in MiByte/s
system.mem_ctrls.busUtil                         0.00                       # Data bus utilization in percentage
system.mem_ctrls.busUtilRead                     0.00                       # Data bus utilization in percentage for reads
system.mem_ctrls.busUtilWrite                    0.00                       # Data bus utilization in percentage for writes
system.mem_ctrls.avgRdQLen                       0.00                       # Average read queue length when enqueuing
system.mem_ctrls.avgWrQLen                       0.00                       # Average write queue length when enqueuing
system.mem_ctrls.readRowHits                        0                       # Number of row buffer hits during reads
system.mem_ctrls.writeRowHits                       0                       # Number of row buffer hits during writes
system.mem_ctrls.readRowHitRate                   nan                       # Row buffer hit rate for reads
system.mem_ctrls.writeRowHitRate                  nan                       # Row buffer hit rate for writes
system.mem_ctrls.avgGap                           nan                       # Average gap between requests
system.mem_ctrls.pageHitRate                      nan                       # Row buffer hit rate, read and write combined
system.mem_ctrls_0.actEnergy                        0                       # Energy for activate commands per rank (pJ)
system.mem_ctrls_0.preEnergy                        0                       # Energy for precharge commands per rank (pJ)
system.mem_ctrls_0.readEnergy                       0                       # Energy for read commands per rank (pJ)
system.mem_ctrls_0.writeEnergy                      0                       # Energy for write commands per rank (pJ)
system.mem_ctrls_0.refreshEnergy                    0                       # Energy for refresh commands per rank (pJ)
system.mem_ctrls_0.actBackEnergy                    0                       # Energy for active background per rank (pJ)
system.mem_ctrls_0.preBackEnergy         365319149846423.687500                       # Energy for precharge background per rank (pJ)
system.mem_ctrls_0.actPowerDownEnergy               0                       # Energy for active power-down per rank (pJ)
system.mem_ctrls_0.prePowerDownEnergy               0                       # Energy for precharge power-down per rank (pJ)
system.mem_ctrls_0.selfRefreshEnergy                0                       # Energy for self refresh per rank (pJ)
system.mem_ctrls_0.totalEnergy           365319149846423.687500                       # Total energy per rank (pJ)
system.mem_ctrls_0.averagePower            163.200000                       # Core power per rank (mW)
system.mem_ctrls_0.totalIdleTime                    0                       # Total Idle time Per DRAM Rank
system.mem_ctrls_0.memoryStateTime::IDLE 8985598237663500                       # Time in different power states
system.mem_ctrls_0.memoryStateTime::REF             0                       # Time in different power states
system.mem_ctrls_0.memoryStateTime::SREF            0                       # Time in different power states
system.mem_ctrls_0.memoryStateTime::PRE_PDN            0                       # Time in different power states
system.mem_ctrls_0.memoryStateTime::ACT             0                       # Time in different power states
system.mem_ctrls_0.memoryStateTime::ACT_PDN            0                       # Time in different power states
system.mem_ctrls_1.actEnergy                        0                       # Energy for activate commands per rank (pJ)
system.mem_ctrls_1.preEnergy                        0                       # Energy for precharge commands per rank (pJ)
system.mem_ctrls_1.readEnergy                       0                       # Energy for read commands per rank (pJ)
system.mem_ctrls_1.writeEnergy                      0                       # Energy for write commands per rank (pJ)
system.mem_ctrls_1.refreshEnergy                    0                       # Energy for refresh commands per rank (pJ)
system.mem_ctrls_1.actBackEnergy                    0                       # Energy for active background per rank (pJ)
system.mem_ctrls_1.preBackEnergy         365319149846423.687500                       # Energy for precharge background per rank (pJ)
system.mem_ctrls_1.actPowerDownEnergy               0                       # Energy for active power-down per rank (pJ)
system.mem_ctrls_1.prePowerDownEnergy               0                       # Energy for precharge power-down per rank (pJ)
system.mem_ctrls_1.selfRefreshEnergy                0                       # Energy for self refresh per rank (pJ)
[...]
system.tol2bus12.pkt_size_system.cpu12.dtb.walker.dma::system.l212.cpu_side       945888                       # Cumulative packet size per connected master and slave (bytes)
system.tol2bus12.pkt_size::total            141323614                       # Cumulative packet size per connected master and slave (bytes)
system.tol2bus12.snoops                        688371                       # Total snoops (count)
system.tol2bus12.snoopTraffic                 3198016                       # Total snoop traffic (bytes)
system.tol2bus12.snoop_fanout::samples        2070456                       # Request fanout histogram
system.tol2bus12.snoop_fanout::mean          0.093087                       # Request fanout histogram
system.tol2bus12.snoop_fanout::stdev         0.290630                       # Request fanout histogram
system.tol2bus12.snoop_fanout::underflows            0      0.00%      0.00% # Request fanout histogram
system.tol2bus12.snoop_fanout::0              1877770     90.69%     90.69% # Request fanout histogram
system.tol2bus12.snoop_fanout::1               192640      9.30%    100.00% # Request fanout histogram
system.tol2bus12.snoop_fanout::2                   46      0.00%    100.00% # Request fanout histogram
system.tol2bus12.snoop_fanout::overflows            0      0.00%    100.00% # Request fanout histogram
system.tol2bus12.snoop_fanout::min_value            0                       # Request fanout histogram
system.tol2bus12.snoop_fanout::max_value            2                       # Request fanout histogram
system.tol2bus12.snoop_fanout::total          2070456                       # Request fanout histogram
system.tol2bus12.directResponses                    0                       # auxiliar stat for checking how reasonable wireless model is
system.tol2bus13.snoop_filter.tot_requests      2807243                       # Total number of requests made to the snoop filter.
system.tol2bus13.snoop_filter.hit_single_requests      1405626                       # Number of requests hitting in the snoop filter with a single holder of the requested data.
system.tol2bus13.snoop_filter.hit_multi_requests          407                       # Number of requests hitting in the snoop filter with multiple (>1) holders of the requested data.
system.tol2bus13.snoop_filter.tot_snoops       198523                       # Total number of snoops made to the snoop filter.
system.tol2bus13.snoop_filter.hit_single_snoops       198456                       # Number of snoops hitting in the snoop filter with a single holder of the requested data.
system.tol2bus13.snoop_filter.hit_multi_snoops           67                       # Number of snoops hitting in the snoop filter with multiple (>1) holders of the requested data.
system.tol2bus13.pwrStateResidencyTicks::UNDEFINED 8985598237663500                       # Cumulative time (in ticks) in various power states
system.tol2bus13.trans_dist::ReadReq           212092                       # Transaction distribution
system.tol2bus13.trans_dist::ReadResp         1399171                       # Transaction distribution
system.tol2bus13.trans_dist::WriteReq            2612                       # Transaction distribution
system.tol2bus13.trans_dist::WriteResp           2612                       # Transaction distribution
system.tol2bus13.trans_dist::WritebackDirty       743167                       # Transaction distribution
system.tol2bus13.trans_dist::WritebackClean       379175                       # Transaction distribution
system.tol2bus13.trans_dist::CleanEvict        234378                       # Transaction distribution
system.tol2bus13.trans_dist::UpgradeReq         29876                       # Transaction distribution
system.tol2bus13.trans_dist::SCUpgradeReq        14503                       # Transaction distribution
system.tol2bus13.trans_dist::UpgradeResp        44379                       # Transaction distribution
system.tol2bus13.trans_dist::ReadExReq         196551                       # Transaction distribution
system.tol2bus13.trans_dist::ReadExResp        196551                       # Transaction distribution
system.tol2bus13.trans_dist::ReadCleanReq       379687                       # Transaction distribution
system.tol2bus13.trans_dist::ReadSharedReq       807392                       # Transaction distribution
system.tol2bus13.trans_dist::CleanSharedReq          192                       # Transaction distribution
system.tol2bus13.trans_dist::CleanSharedResp          192                       # Transaction distribution
system.tol2bus13.trans_dist::InvalidateReq        17806                       # Transaction distribution
system.tol2bus13.trans_dist::InvalidateResp        17806                       # Transaction distribution
system.tol2bus13.pkt_count_system.cpu13.icache.mem_side::system.l213.cpu_side      1138549                       # Packet count per connected master and slave (bytes)
system.tol2bus13.pkt_count_system.cpu13.dcache.mem_side::system.l213.cpu_side      3119995                       # Packet count per connected master and slave (bytes)
system.tol2bus13.pkt_count_system.cpu13.itb.walker.dma::system.l213.cpu_side       171380                       # Packet count per connected master and slave (bytes)
system.tol2bus13.pkt_count_system.cpu13.dtb.walker.dma::system.l213.cpu_side       248218                       # Packet count per connected master and slave (bytes)
system.tol2bus13.pkt_count::total             4678142                       # Packet count per connected master and slave (bytes)
system.tol2bus13.pkt_size_system.cpu13.icache.mem_side::system.l213.cpu_side     48567168                       # Cumulative packet size per connected master and slave (bytes)
system.tol2bus13.pkt_size_system.cpu13.dcache.mem_side::system.l213.cpu_side    111834654                       # Cumulative packet size per connected master and slave (bytes)
system.tol2bus13.pkt_size_system.cpu13.itb.walker.dma::system.l213.cpu_side       685520                       # Cumulative packet size per connected master and slave (bytes)
system.tol2bus13.pkt_size_system.cpu13.dtb.walker.dma::system.l213.cpu_side       992872                       # Cumulative packet size per connected master and slave (bytes)
system.tol2bus13.pkt_size::total            162080214                       # Cumulative packet size per connected master and slave (bytes)
system.tol2bus13.snoops                        832986                       # Total snoops (count)
system.tol2bus13.snoopTraffic                 4288768                       # Total snoop traffic (bytes)
system.tol2bus13.snoop_fanout::samples        2432245                       # Request fanout histogram
system.tol2bus13.snoop_fanout::mean          0.083673                       # Request fanout histogram
system.tol2bus13.snoop_fanout::stdev         0.276996                       # Request fanout histogram
system.tol2bus13.snoop_fanout::underflows            0      0.00%      0.00% # Request fanout histogram
system.tol2bus13.snoop_fanout::0              2228799     91.64%     91.64% # Request fanout histogram
system.tol2bus13.snoop_fanout::1               203379      8.36%    100.00% # Request fanout histogram
system.tol2bus13.snoop_fanout::2                   67      0.00%    100.00% # Request fanout histogram
system.tol2bus13.snoop_fanout::overflows            0      0.00%    100.00% # Request fanout histogram
system.tol2bus13.snoop_fanout::min_value            0                       # Request fanout histogram
system.tol2bus13.snoop_fanout::max_value            2                       # Request fanout histogram
system.tol2bus13.snoop_fanout::total          2432245                       # Request fanout histogram
system.tol2bus13.directResponses                    0                       # auxiliar stat for checking how reasonable wireless model is
system.tol2bus14.snoop_filter.tot_requests     19591851                       # Total number of requests made to the snoop filter.
system.tol2bus14.snoop_filter.hit_single_requests      9799092                       # Number of requests hitting in the snoop filter with a single holder of the requested data.
system.tol2bus14.snoop_filter.hit_multi_requests          333                       # Number of requests hitting in the snoop filter with multiple (>1) holders of the requested data.
system.tol2bus14.snoop_filter.tot_snoops       267010                       # Total number of snoops made to the snoop filter.
system.tol2bus14.snoop_filter.hit_single_snoops       266918                       # Number of snoops hitting in the snoop filter with a single holder of the requested data.
system.tol2bus14.snoop_filter.hit_multi_snoops           92                       # Number of snoops hitting in the snoop filter with multiple (>1) holders of the requested data.
system.tol2bus14.pwrStateResidencyTicks::UNDEFINED 8985598237663500                       # Cumulative time (in ticks) in various power states
system.tol2bus14.trans_dist::ReadReq          2749406                       # Transaction distribution
system.tol2bus14.trans_dist::ReadResp        11891386                       # Transaction distribution
system.tol2bus14.trans_dist::WriteReq            2663                       # Transaction distribution
system.tol2bus14.trans_dist::WriteResp           2663                       # Transaction distribution
system.tol2bus14.trans_dist::WritebackDirty      1865964                       # Transaction distribution
system.tol2bus14.trans_dist::WritebackClean      6750537                       # Transaction distribution
system.tol2bus14.trans_dist::CleanEvict       1134815                       # Transaction distribution
system.tol2bus14.trans_dist::UpgradeReq         31454                       # Transaction distribution
system.tol2bus14.trans_dist::SCUpgradeReq        14514                       # Transaction distribution
system.tol2bus14.trans_dist::UpgradeResp        45968                       # Transaction distribution
system.tol2bus14.trans_dist::ReadExReq         529320                       # Transaction distribution
system.tol2bus14.trans_dist::ReadExResp        529320                       # Transaction distribution
system.tol2bus14.trans_dist::ReadCleanReq      6751049                       # Transaction distribution
system.tol2bus14.trans_dist::ReadSharedReq      2390931                       # Transaction distribution
system.tol2bus14.trans_dist::InvalidateReq       121562                       # Transaction distribution
system.tol2bus14.trans_dist::InvalidateResp       121562                       # Transaction distribution
system.tol2bus14.pkt_count_system.cpu14.icache.mem_side::system.l214.cpu_side     20252635                       # Packet count per connected master and slave (bytes)
system.tol2bus14.pkt_count_system.cpu14.dcache.mem_side::system.l214.cpu_side      9188441                       # Packet count per connected master and slave (bytes)
system.tol2bus14.pkt_count_system.cpu14.itb.walker.dma::system.l214.cpu_side      4152642                       # Packet count per connected master and slave (bytes)
system.tol2bus14.pkt_count_system.cpu14.dtb.walker.dma::system.l214.cpu_side      1339396                       # Packet count per connected master and slave (bytes)
system.tol2bus14.pkt_count::total            34933114                       # Packet count per connected master and slave (bytes)
system.tol2bus14.pkt_size_system.cpu14.icache.mem_side::system.l214.cpu_side    864101504                       # Cumulative packet size per connected master and slave (bytes)
system.tol2bus14.pkt_size_system.cpu14.dcache.mem_side::system.l214.cpu_side    306341960                       # Cumulative packet size per connected master and slave (bytes)
system.tol2bus14.pkt_size_system.cpu14.itb.walker.dma::system.l214.cpu_side     16610568                       # Cumulative packet size per connected master and slave (bytes)
system.tol2bus14.pkt_size_system.cpu14.dtb.walker.dma::system.l214.cpu_side      5357584                       # Cumulative packet size per connected master and slave (bytes)
system.tol2bus14.pkt_size::total           1192411616                       # Cumulative packet size per connected master and slave (bytes)
system.tol2bus14.snoops                       1131377                       # Total snoops (count)
system.tol2bus14.snoopTraffic                10145728                       # Total snoop traffic (bytes)
system.tol2bus14.snoop_fanout::samples       13659001                       # Request fanout histogram
system.tol2bus14.snoop_fanout::mean          0.019704                       # Request fanout histogram
system.tol2bus14.snoop_fanout::stdev         0.139030                       # Request fanout histogram
system.tol2bus14.snoop_fanout::underflows            0      0.00%      0.00% # Request fanout histogram
system.tol2bus14.snoop_fanout::0             13389953     98.03%     98.03% # Request fanout histogram
system.tol2bus14.snoop_fanout::1               268956      1.97%    100.00% # Request fanout histogram
system.tol2bus14.snoop_fanout::2                   92      0.00%    100.00% # Request fanout histogram
system.tol2bus14.snoop_fanout::overflows            0      0.00%    100.00% # Request fanout histogram
system.tol2bus14.snoop_fanout::min_value            0                       # Request fanout histogram
system.tol2bus14.snoop_fanout::max_value            2                       # Request fanout histogram
system.tol2bus14.snoop_fanout::total         13659001                       # Request fanout histogram
system.tol2bus14.directResponses                    0                       # auxiliar stat for checking how reasonable wireless model is
system.tol2bus15.snoop_filter.tot_requests      2893029                       # Total number of requests made to the snoop filter.
system.tol2bus15.snoop_filter.hit_single_requests      1450567                       # Number of requests hitting in the snoop filter with a single holder of the requested data.
system.tol2bus15.snoop_filter.hit_multi_requests          401                       # Number of requests hitting in the snoop filter with multiple (>1) holders of the requested data.
system.tol2bus15.snoop_filter.tot_snoops       180639                       # Total number of snoops made to the snoop filter.
system.tol2bus15.snoop_filter.hit_single_snoops       180566                       # Number of snoops hitting in the snoop filter with a single holder of the requested data.
system.tol2bus15.snoop_filter.hit_multi_snoops           73                       # Number of snoops hitting in the snoop filter with multiple (>1) holders of the requested data.
system.tol2bus15.pwrStateResidencyTicks::UNDEFINED 8985598237663500                       # Cumulative time (in ticks) in various power states
system.tol2bus15.trans_dist::ReadReq           229246                       # Transaction distribution
system.tol2bus15.trans_dist::ReadResp         1455934                       # Transaction distribution
system.tol2bus15.trans_dist::WriteReq            2285                       # Transaction distribution
system.tol2bus15.trans_dist::WriteResp           2285                       # Transaction distribution
system.tol2bus15.trans_dist::WritebackDirty       785360                       # Transaction distribution
system.tol2bus15.trans_dist::WritebackClean       440035                       # Transaction distribution
system.tol2bus15.trans_dist::CleanEvict        183683                       # Transaction distribution
system.tol2bus15.trans_dist::UpgradeReq         26124                       # Transaction distribution
system.tol2bus15.trans_dist::SCUpgradeReq        13089                       # Transaction distribution
system.tol2bus15.trans_dist::UpgradeResp        39213                       # Transaction distribution
system.tol2bus15.trans_dist::ReadExReq         199566                       # Transaction distribution
system.tol2bus15.trans_dist::ReadExResp        199566                       # Transaction distribution
system.tol2bus15.trans_dist::ReadCleanReq       440547                       # Transaction distribution
system.tol2bus15.trans_dist::ReadSharedReq       786141                       # Transaction distribution
system.tol2bus15.trans_dist::CleanSharedReq           64                       # Transaction distribution
system.tol2bus15.trans_dist::CleanSharedResp           64                       # Transaction distribution
system.tol2bus15.trans_dist::InvalidateReq        16153                       # Transaction distribution
system.tol2bus15.trans_dist::InvalidateResp        16153                       # Transaction distribution
system.tol2bus15.pkt_count_system.cpu15.icache.mem_side::system.l215.cpu_side      1321129                       # Packet count per connected master and slave (bytes)
system.tol2bus15.pkt_count_system.cpu15.dcache.mem_side::system.l215.cpu_side      3060901                       # Packet count per connected master and slave (bytes)
system.tol2bus15.pkt_count_system.cpu15.itb.walker.dma::system.l215.cpu_side       218282                       # Packet count per connected master and slave (bytes)
system.tol2bus15.pkt_count_system.cpu15.dtb.walker.dma::system.l215.cpu_side       235196                       # Packet count per connected master and slave (bytes)
system.tol2bus15.pkt_count::total             4835508                       # Packet count per connected master and slave (bytes)
system.tol2bus15.pkt_size_system.cpu15.icache.mem_side::system.l215.cpu_side     56357248                       # Cumulative packet size per connected master and slave (bytes)
system.tol2bus15.pkt_size_system.cpu15.dcache.mem_side::system.l215.cpu_side    113367454                       # Cumulative packet size per connected master and slave (bytes)
system.tol2bus15.pkt_size_system.cpu15.itb.walker.dma::system.l215.cpu_side       873128                       # Cumulative packet size per connected master and slave (bytes)
system.tol2bus15.pkt_size_system.cpu15.dtb.walker.dma::system.l215.cpu_side       940784                       # Cumulative packet size per connected master and slave (bytes)
system.tol2bus15.pkt_size::total            171538614                       # Cumulative packet size per connected master and slave (bytes)
system.tol2bus15.snoops                        751558                       # Total snoops (count)
system.tol2bus15.snoopTraffic                 3500352                       # Total snoop traffic (bytes)
system.tol2bus15.snoop_fanout::samples        2412479                       # Request fanout histogram
system.tol2bus15.snoop_fanout::mean          0.076013                       # Request fanout histogram
system.tol2bus15.snoop_fanout::stdev         0.265133                       # Request fanout histogram
system.tol2bus15.snoop_fanout::underflows            0      0.00%      0.00% # Request fanout histogram
system.tol2bus15.snoop_fanout::0              2229172     92.40%     92.40% # Request fanout histogram
system.tol2bus15.snoop_fanout::1               183234      7.60%    100.00% # Request fanout histogram
system.tol2bus15.snoop_fanout::2                   73      0.00%    100.00% # Request fanout histogram
system.tol2bus15.snoop_fanout::overflows            0      0.00%    100.00% # Request fanout histogram
system.tol2bus15.snoop_fanout::min_value            0                       # Request fanout histogram
system.tol2bus15.snoop_fanout::max_value            2                       # Request fanout histogram
system.tol2bus15.snoop_fanout::total          2412479                       # Request fanout histogram
system.tol2bus15.directResponses                    0                       # auxiliar stat for checking how reasonable wireless model is

---------- End Simulation Statistics   ----------
