
---------- Begin Simulation Statistics ----------
sim_seconds                               4174.454478                       # Number of seconds simulated
sim_ticks                                4174454477710000                       # Number of ticks simulated
final_tick                               10921577532491000                       # Number of ticks from beginning of simulation (restored from checkpoints and never reset)
sim_freq                                 1000000000000                       # Frequency of simulated ticks
host_inst_rate                                2576193                       # Simulator instruction rate (inst/s)
host_op_rate                                  2829533                       # Simulator op (including micro ops) rate (op/s)
host_tick_rate                           1353096168774                       # Simulator tick rate (ticks/s)
host_mem_usage                                4921564                       # Number of bytes of host memory used
host_seconds                                  3085.11                       # Real time elapsed on the host
sim_insts                                  7947847113                       # Number of instructions simulated
sim_ops                                    8729427291                       # Number of ops (including micro ops) simulated
system.voltage_domain.voltage                       1                       # Voltage in Volts
system.clk_domain.clock                           625                       # Clock period in ticks
system.bootmem.pwrStateResidencyTicks::UNDEFINED 10921577532491000                       # Cumulative time (in ticks) in various power states
system.mem_ctrls.pwrStateResidencyTicks::UNDEFINED 10921577532491000                       # Cumulative time (in ticks) in various power states
system.mem_ctrls.bytes_read::cpu00.dtb.walker        79616                       # Number of bytes read from this memory
system.mem_ctrls.bytes_read::cpu00.itb.walker        67584                       # Number of bytes read from this memory
system.mem_ctrls.bytes_read::cpu00.inst       5585984                       # Number of bytes read from this memory
system.mem_ctrls.bytes_read::cpu00.data      76528512                       # Number of bytes read from this memory
system.mem_ctrls.bytes_read::cpu01.dtb.walker       106624                       # Number of bytes read from this memory
system.mem_ctrls.bytes_read::cpu01.itb.walker        21760                       # Number of bytes read from this memory
system.mem_ctrls.bytes_read::cpu01.inst       1426112                       # Number of bytes read from this memory
system.mem_ctrls.bytes_read::cpu01.data       8141888                       # Number of bytes read from this memory
system.mem_ctrls.bytes_read::cpu02.dtb.walker        19904                       # Number of bytes read from this memory
system.mem_ctrls.bytes_read::cpu02.itb.walker        15552                       # Number of bytes read from this memory
system.mem_ctrls.bytes_read::cpu02.inst       1647808                       # Number of bytes read from this memory
system.mem_ctrls.bytes_read::cpu02.data       2577920                       # Number of bytes read from this memory
system.mem_ctrls.bytes_read::cpu03.dtb.walker        30400                       # Number of bytes read from this memory
system.mem_ctrls.bytes_read::cpu03.itb.walker        14400                       # Number of bytes read from this memory
system.mem_ctrls.bytes_read::cpu03.inst       1984896                       # Number of bytes read from this memory
system.mem_ctrls.bytes_read::cpu03.data       4297856                       # Number of bytes read from this memory
system.mem_ctrls.bytes_read::cpu04.dtb.walker        36288                       # Number of bytes read from this memory
system.mem_ctrls.bytes_read::cpu04.itb.walker        16256                       # Number of bytes read from this memory
system.mem_ctrls.bytes_read::cpu04.inst       1592896                       # Number of bytes read from this memory
system.mem_ctrls.bytes_read::cpu04.data       2346112                       # Number of bytes read from this memory
system.mem_ctrls.bytes_read::cpu05.dtb.walker        17920                       # Number of bytes read from this memory
system.mem_ctrls.bytes_read::cpu05.itb.walker        11904                       # Number of bytes read from this memory
system.mem_ctrls.bytes_read::cpu05.inst       1464320                       # Number of bytes read from this memory
system.mem_ctrls.bytes_read::cpu05.data       3274048                       # Number of bytes read from this memory
system.mem_ctrls.bytes_read::cpu06.dtb.walker      4087232                       # Number of bytes read from this memory
system.mem_ctrls.bytes_read::cpu06.itb.walker        81792                       # Number of bytes read from this memory
system.mem_ctrls.bytes_read::cpu06.inst       4789952                       # Number of bytes read from this memory
system.mem_ctrls.bytes_read::cpu06.data     172826432                       # Number of bytes read from this memory
system.mem_ctrls.bytes_read::cpu07.dtb.walker        11776                       # Number of bytes read from this memory
system.mem_ctrls.bytes_read::cpu07.itb.walker         5952                       # Number of bytes read from this memory
system.mem_ctrls.bytes_read::cpu07.inst        800000                       # Number of bytes read from this memory
system.mem_ctrls.bytes_read::cpu07.data       1354880                       # Number of bytes read from this memory
system.mem_ctrls.bytes_read::cpu08.dtb.walker        26432                       # Number of bytes read from this memory
system.mem_ctrls.bytes_read::cpu08.itb.walker        25664                       # Number of bytes read from this memory
system.mem_ctrls.bytes_read::cpu08.inst       1986688                       # Number of bytes read from this memory
system.mem_ctrls.bytes_read::cpu08.data       3210496                       # Number of bytes read from this memory
system.mem_ctrls.bytes_read::cpu09.dtb.walker         9984                       # Number of bytes read from this memory
system.mem_ctrls.bytes_read::cpu09.itb.walker         5184                       # Number of bytes read from this memory
system.mem_ctrls.bytes_read::cpu09.inst        529280                       # Number of bytes read from this memory
system.mem_ctrls.bytes_read::cpu09.data       1225856                       # Number of bytes read from this memory
system.mem_ctrls.bytes_read::cpu10.dtb.walker        24576                       # Number of bytes read from this memory
system.mem_ctrls.bytes_read::cpu10.itb.walker        22080                       # Number of bytes read from this memory
system.mem_ctrls.bytes_read::cpu10.inst       1177920                       # Number of bytes read from this memory
system.mem_ctrls.bytes_read::cpu10.data       3783936                       # Number of bytes read from this memory
system.mem_ctrls.bytes_read::cpu11.dtb.walker        26176                       # Number of bytes read from this memory
system.mem_ctrls.bytes_read::cpu11.itb.walker        15744                       # Number of bytes read from this memory
system.mem_ctrls.bytes_read::cpu11.inst       1637952                       # Number of bytes read from this memory
system.mem_ctrls.bytes_read::cpu11.data       4774336                       # Number of bytes read from this memory
system.mem_ctrls.bytes_read::cpu12.dtb.walker        19904                       # Number of bytes read from this memory
system.mem_ctrls.bytes_read::cpu12.itb.walker        13120                       # Number of bytes read from this memory
system.mem_ctrls.bytes_read::cpu12.inst        956288                       # Number of bytes read from this memory
system.mem_ctrls.bytes_read::cpu12.data       2869568                       # Number of bytes read from this memory
system.mem_ctrls.bytes_read::cpu13.dtb.walker       171712                       # Number of bytes read from this memory
system.mem_ctrls.bytes_read::cpu13.itb.walker       236480                       # Number of bytes read from this memory
system.mem_ctrls.bytes_read::cpu13.inst       5302784                       # Number of bytes read from this memory
system.mem_ctrls.bytes_read::cpu13.data       5053312                       # Number of bytes read from this memory
system.mem_ctrls.bytes_read::cpu14.dtb.walker      1071040                       # Number of bytes read from this memory
system.mem_ctrls.bytes_read::cpu14.itb.walker       858496                       # Number of bytes read from this memory
system.mem_ctrls.bytes_read::cpu14.inst      16579456                       # Number of bytes read from this memory
system.mem_ctrls.bytes_read::cpu14.data      13603520                       # Number of bytes read from this memory
system.mem_ctrls.bytes_read::cpu15.dtb.walker        90176                       # Number of bytes read from this memory
system.mem_ctrls.bytes_read::cpu15.itb.walker        88512                       # Number of bytes read from this memory
system.mem_ctrls.bytes_read::cpu15.inst       4008128                       # Number of bytes read from this memory
system.mem_ctrls.bytes_read::cpu15.data       9817536                       # Number of bytes read from this memory
system.mem_ctrls.bytes_read::total          374486912                       # Number of bytes read from this memory
system.mem_ctrls.bytes_inst_read::cpu00.inst      5585984                       # Number of instructions bytes read from this memory
system.mem_ctrls.bytes_inst_read::cpu01.inst      1426112                       # Number of instructions bytes read from this memory
system.mem_ctrls.bytes_inst_read::cpu02.inst      1647808                       # Number of instructions bytes read from this memory
system.mem_ctrls.bytes_inst_read::cpu03.inst      1984896                       # Number of instructions bytes read from this memory
system.mem_ctrls.bytes_inst_read::cpu04.inst      1592896                       # Number of instructions bytes read from this memory
system.mem_ctrls.bytes_inst_read::cpu05.inst      1464320                       # Number of instructions bytes read from this memory
system.mem_ctrls.bytes_inst_read::cpu06.inst      4789952                       # Number of instructions bytes read from this memory
system.mem_ctrls.bytes_inst_read::cpu07.inst       800000                       # Number of instructions bytes read from this memory
system.mem_ctrls.bytes_inst_read::cpu08.inst      1986688                       # Number of instructions bytes read from this memory
system.mem_ctrls.bytes_inst_read::cpu09.inst       529280                       # Number of instructions bytes read from this memory
system.mem_ctrls.bytes_inst_read::cpu10.inst      1177920                       # Number of instructions bytes read from this memory
system.mem_ctrls.bytes_inst_read::cpu11.inst      1637952                       # Number of instructions bytes read from this memory
system.mem_ctrls.bytes_inst_read::cpu12.inst       956288                       # Number of instructions bytes read from this memory
system.mem_ctrls.bytes_inst_read::cpu13.inst      5302784                       # Number of instructions bytes read from this memory
system.mem_ctrls.bytes_inst_read::cpu14.inst     16579456                       # Number of instructions bytes read from this memory
system.mem_ctrls.bytes_inst_read::cpu15.inst      4008128                       # Number of instructions bytes read from this memory
system.mem_ctrls.bytes_inst_read::total      51470464                       # Number of instructions bytes read from this memory
system.mem_ctrls.bytes_written::writebacks    179733696                       # Number of bytes written to this memory
system.mem_ctrls.bytes_written::total       179733696                       # Number of bytes written to this memory
system.mem_ctrls.num_reads::cpu00.dtb.walker         1244                       # Number of read requests responded to by this memory
system.mem_ctrls.num_reads::cpu00.itb.walker         1056                       # Number of read requests responded to by this memory
system.mem_ctrls.num_reads::cpu00.inst          87281                       # Number of read requests responded to by this memory
system.mem_ctrls.num_reads::cpu00.data        1195758                       # Number of read requests responded to by this memory
system.mem_ctrls.num_reads::cpu01.dtb.walker         1666                       # Number of read requests responded to by this memory
system.mem_ctrls.num_reads::cpu01.itb.walker          340                       # Number of read requests responded to by this memory
system.mem_ctrls.num_reads::cpu01.inst          22283                       # Number of read requests responded to by this memory
system.mem_ctrls.num_reads::cpu01.data         127217                       # Number of read requests responded to by this memory
system.mem_ctrls.num_reads::cpu02.dtb.walker          311                       # Number of read requests responded to by this memory
system.mem_ctrls.num_reads::cpu02.itb.walker          243                       # Number of read requests responded to by this memory
system.mem_ctrls.num_reads::cpu02.inst          25747                       # Number of read requests responded to by this memory
system.mem_ctrls.num_reads::cpu02.data          40280                       # Number of read requests responded to by this memory
system.mem_ctrls.num_reads::cpu03.dtb.walker          475                       # Number of read requests responded to by this memory
system.mem_ctrls.num_reads::cpu03.itb.walker          225                       # Number of read requests responded to by this memory
system.mem_ctrls.num_reads::cpu03.inst          31014                       # Number of read requests responded to by this memory
system.mem_ctrls.num_reads::cpu03.data          67154                       # Number of read requests responded to by this memory
system.mem_ctrls.num_reads::cpu04.dtb.walker          567                       # Number of read requests responded to by this memory
system.mem_ctrls.num_reads::cpu04.itb.walker          254                       # Number of read requests responded to by this memory
system.mem_ctrls.num_reads::cpu04.inst          24889                       # Number of read requests responded to by this memory
system.mem_ctrls.num_reads::cpu04.data          36658                       # Number of read requests responded to by this memory
system.mem_ctrls.num_reads::cpu05.dtb.walker          280                       # Number of read requests responded to by this memory
system.mem_ctrls.num_reads::cpu05.itb.walker          186                       # Number of read requests responded to by this memory
system.mem_ctrls.num_reads::cpu05.inst          22880                       # Number of read requests responded to by this memory
system.mem_ctrls.num_reads::cpu05.data          51157                       # Number of read requests responded to by this memory
system.mem_ctrls.num_reads::cpu06.dtb.walker        63863                       # Number of read requests responded to by this memory
system.mem_ctrls.num_reads::cpu06.itb.walker         1278                       # Number of read requests responded to by this memory
system.mem_ctrls.num_reads::cpu06.inst          74843                       # Number of read requests responded to by this memory
system.mem_ctrls.num_reads::cpu06.data        2700413                       # Number of read requests responded to by this memory
system.mem_ctrls.num_reads::cpu07.dtb.walker          184                       # Number of read requests responded to by this memory
system.mem_ctrls.num_reads::cpu07.itb.walker           93                       # Number of read requests responded to by this memory
system.mem_ctrls.num_reads::cpu07.inst          12500                       # Number of read requests responded to by this memory
system.mem_ctrls.num_reads::cpu07.data          21170                       # Number of read requests responded to by this memory
system.mem_ctrls.num_reads::cpu08.dtb.walker          413                       # Number of read requests responded to by this memory
system.mem_ctrls.num_reads::cpu08.itb.walker          401                       # Number of read requests responded to by this memory
system.mem_ctrls.num_reads::cpu08.inst          31042                       # Number of read requests responded to by this memory
system.mem_ctrls.num_reads::cpu08.data          50164                       # Number of read requests responded to by this memory
system.mem_ctrls.num_reads::cpu09.dtb.walker          156                       # Number of read requests responded to by this memory
system.mem_ctrls.num_reads::cpu09.itb.walker           81                       # Number of read requests responded to by this memory
system.mem_ctrls.num_reads::cpu09.inst           8270                       # Number of read requests responded to by this memory
system.mem_ctrls.num_reads::cpu09.data          19154                       # Number of read requests responded to by this memory
system.mem_ctrls.num_reads::cpu10.dtb.walker          384                       # Number of read requests responded to by this memory
system.mem_ctrls.num_reads::cpu10.itb.walker          345                       # Number of read requests responded to by this memory
system.mem_ctrls.num_reads::cpu10.inst          18405                       # Number of read requests responded to by this memory
system.mem_ctrls.num_reads::cpu10.data          59124                       # Number of read requests responded to by this memory
system.mem_ctrls.num_reads::cpu11.dtb.walker          409                       # Number of read requests responded to by this memory
system.mem_ctrls.num_reads::cpu11.itb.walker          246                       # Number of read requests responded to by this memory
system.mem_ctrls.num_reads::cpu11.inst          25593                       # Number of read requests responded to by this memory
system.mem_ctrls.num_reads::cpu11.data          74599                       # Number of read requests responded to by this memory
system.mem_ctrls.num_reads::cpu12.dtb.walker          311                       # Number of read requests responded to by this memory
system.mem_ctrls.num_reads::cpu12.itb.walker          205                       # Number of read requests responded to by this memory
system.mem_ctrls.num_reads::cpu12.inst          14942                       # Number of read requests responded to by this memory
system.mem_ctrls.num_reads::cpu12.data          44837                       # Number of read requests responded to by this memory
system.mem_ctrls.num_reads::cpu13.dtb.walker         2683                       # Number of read requests responded to by this memory
system.mem_ctrls.num_reads::cpu13.itb.walker         3695                       # Number of read requests responded to by this memory
system.mem_ctrls.num_reads::cpu13.inst          82856                       # Number of read requests responded to by this memory
system.mem_ctrls.num_reads::cpu13.data          78958                       # Number of read requests responded to by this memory
system.mem_ctrls.num_reads::cpu14.dtb.walker        16735                       # Number of read requests responded to by this memory
system.mem_ctrls.num_reads::cpu14.itb.walker        13414                       # Number of read requests responded to by this memory
system.mem_ctrls.num_reads::cpu14.inst         259054                       # Number of read requests responded to by this memory
system.mem_ctrls.num_reads::cpu14.data         212555                       # Number of read requests responded to by this memory
system.mem_ctrls.num_reads::cpu15.dtb.walker         1409                       # Number of read requests responded to by this memory
system.mem_ctrls.num_reads::cpu15.itb.walker         1383                       # Number of read requests responded to by this memory
system.mem_ctrls.num_reads::cpu15.inst          62627                       # Number of read requests responded to by this memory
system.mem_ctrls.num_reads::cpu15.data         153399                       # Number of read requests responded to by this memory
system.mem_ctrls.num_reads::total             5851358                       # Number of read requests responded to by this memory
system.mem_ctrls.num_writes::writebacks       2808339                       # Number of write requests responded to by this memory
system.mem_ctrls.num_writes::total            2808339                       # Number of write requests responded to by this memory
system.mem_ctrls.bw_read::cpu00.dtb.walker           19                       # Total read bandwidth from this memory (bytes/s)
system.mem_ctrls.bw_read::cpu00.itb.walker           16                       # Total read bandwidth from this memory (bytes/s)
system.mem_ctrls.bw_read::cpu00.inst             1338                       # Total read bandwidth from this memory (bytes/s)
system.mem_ctrls.bw_read::cpu00.data            18333                       # Total read bandwidth from this memory (bytes/s)
system.mem_ctrls.bw_read::cpu01.dtb.walker           26                       # Total read bandwidth from this memory (bytes/s)
system.mem_ctrls.bw_read::cpu01.itb.walker            5                       # Total read bandwidth from this memory (bytes/s)
system.mem_ctrls.bw_read::cpu01.inst              342                       # Total read bandwidth from this memory (bytes/s)
system.mem_ctrls.bw_read::cpu01.data             1950                       # Total read bandwidth from this memory (bytes/s)
system.mem_ctrls.bw_read::cpu02.dtb.walker            5                       # Total read bandwidth from this memory (bytes/s)
system.mem_ctrls.bw_read::cpu02.itb.walker            4                       # Total read bandwidth from this memory (bytes/s)
system.mem_ctrls.bw_read::cpu02.inst              395                       # Total read bandwidth from this memory (bytes/s)
system.mem_ctrls.bw_read::cpu02.data              618                       # Total read bandwidth from this memory (bytes/s)
system.mem_ctrls.bw_read::cpu03.dtb.walker            7                       # Total read bandwidth from this memory (bytes/s)
system.mem_ctrls.bw_read::cpu03.itb.walker            3                       # Total read bandwidth from this memory (bytes/s)
system.mem_ctrls.bw_read::cpu03.inst              475                       # Total read bandwidth from this memory (bytes/s)
system.mem_ctrls.bw_read::cpu03.data             1030                       # Total read bandwidth from this memory (bytes/s)
system.mem_ctrls.bw_read::cpu04.dtb.walker            9                       # Total read bandwidth from this memory (bytes/s)
system.mem_ctrls.bw_read::cpu04.itb.walker            4                       # Total read bandwidth from this memory (bytes/s)
system.mem_ctrls.bw_read::cpu04.inst              382                       # Total read bandwidth from this memory (bytes/s)
system.mem_ctrls.bw_read::cpu04.data              562                       # Total read bandwidth from this memory (bytes/s)
system.mem_ctrls.bw_read::cpu05.dtb.walker            4                       # Total read bandwidth from this memory (bytes/s)
system.mem_ctrls.bw_read::cpu05.itb.walker            3                       # Total read bandwidth from this memory (bytes/s)
system.mem_ctrls.bw_read::cpu05.inst              351                       # Total read bandwidth from this memory (bytes/s)
system.mem_ctrls.bw_read::cpu05.data              784                       # Total read bandwidth from this memory (bytes/s)
system.mem_ctrls.bw_read::cpu06.dtb.walker          979                       # Total read bandwidth from this memory (bytes/s)
system.mem_ctrls.bw_read::cpu06.itb.walker           20                       # Total read bandwidth from this memory (bytes/s)
system.mem_ctrls.bw_read::cpu06.inst             1147                       # Total read bandwidth from this memory (bytes/s)
system.mem_ctrls.bw_read::cpu06.data            41401                       # Total read bandwidth from this memory (bytes/s)
system.mem_ctrls.bw_read::cpu07.dtb.walker            3                       # Total read bandwidth from this memory (bytes/s)
system.mem_ctrls.bw_read::cpu07.itb.walker            1                       # Total read bandwidth from this memory (bytes/s)
system.mem_ctrls.bw_read::cpu07.inst              192                       # Total read bandwidth from this memory (bytes/s)
system.mem_ctrls.bw_read::cpu07.data              325                       # Total read bandwidth from this memory (bytes/s)
system.mem_ctrls.bw_read::cpu08.dtb.walker            6                       # Total read bandwidth from this memory (bytes/s)
system.mem_ctrls.bw_read::cpu08.itb.walker            6                       # Total read bandwidth from this memory (bytes/s)
system.mem_ctrls.bw_read::cpu08.inst              476                       # Total read bandwidth from this memory (bytes/s)
system.mem_ctrls.bw_read::cpu08.data              769                       # Total read bandwidth from this memory (bytes/s)
system.mem_ctrls.bw_read::cpu09.dtb.walker            2                       # Total read bandwidth from this memory (bytes/s)
system.mem_ctrls.bw_read::cpu09.itb.walker            1                       # Total read bandwidth from this memory (bytes/s)
system.mem_ctrls.bw_read::cpu09.inst              127                       # Total read bandwidth from this memory (bytes/s)
system.mem_ctrls.bw_read::cpu09.data              294                       # Total read bandwidth from this memory (bytes/s)
system.mem_ctrls.bw_read::cpu10.dtb.walker            6                       # Total read bandwidth from this memory (bytes/s)
system.mem_ctrls.bw_read::cpu10.itb.walker            5                       # Total read bandwidth from this memory (bytes/s)
system.mem_ctrls.bw_read::cpu10.inst              282                       # Total read bandwidth from this memory (bytes/s)
system.mem_ctrls.bw_read::cpu10.data              906                       # Total read bandwidth from this memory (bytes/s)
system.mem_ctrls.bw_read::cpu11.dtb.walker            6                       # Total read bandwidth from this memory (bytes/s)
system.mem_ctrls.bw_read::cpu11.itb.walker            4                       # Total read bandwidth from this memory (bytes/s)
system.mem_ctrls.bw_read::cpu11.inst              392                       # Total read bandwidth from this memory (bytes/s)
system.mem_ctrls.bw_read::cpu11.data             1144                       # Total read bandwidth from this memory (bytes/s)
system.mem_ctrls.bw_read::cpu12.dtb.walker            5                       # Total read bandwidth from this memory (bytes/s)
system.mem_ctrls.bw_read::cpu12.itb.walker            3                       # Total read bandwidth from this memory (bytes/s)
system.mem_ctrls.bw_read::cpu12.inst              229                       # Total read bandwidth from this memory (bytes/s)
system.mem_ctrls.bw_read::cpu12.data              687                       # Total read bandwidth from this memory (bytes/s)
system.mem_ctrls.bw_read::cpu13.dtb.walker           41                       # Total read bandwidth from this memory (bytes/s)
system.mem_ctrls.bw_read::cpu13.itb.walker           57                       # Total read bandwidth from this memory (bytes/s)
system.mem_ctrls.bw_read::cpu13.inst             1270                       # Total read bandwidth from this memory (bytes/s)
system.mem_ctrls.bw_read::cpu13.data             1211                       # Total read bandwidth from this memory (bytes/s)
system.mem_ctrls.bw_read::cpu14.dtb.walker          257                       # Total read bandwidth from this memory (bytes/s)
system.mem_ctrls.bw_read::cpu14.itb.walker          206                       # Total read bandwidth from this memory (bytes/s)
system.mem_ctrls.bw_read::cpu14.inst             3972                       # Total read bandwidth from this memory (bytes/s)
system.mem_ctrls.bw_read::cpu14.data             3259                       # Total read bandwidth from this memory (bytes/s)
system.mem_ctrls.bw_read::cpu15.dtb.walker           22                       # Total read bandwidth from this memory (bytes/s)
system.mem_ctrls.bw_read::cpu15.itb.walker           21                       # Total read bandwidth from this memory (bytes/s)
system.mem_ctrls.bw_read::cpu15.inst              960                       # Total read bandwidth from this memory (bytes/s)
system.mem_ctrls.bw_read::cpu15.data             2352                       # Total read bandwidth from this memory (bytes/s)
system.mem_ctrls.bw_read::total                 89709                       # Total read bandwidth from this memory (bytes/s)
system.mem_ctrls.bw_inst_read::cpu00.inst         1338                       # Instruction read bandwidth from this memory (bytes/s)
system.mem_ctrls.bw_inst_read::cpu01.inst          342                       # Instruction read bandwidth from this memory (bytes/s)
system.mem_ctrls.bw_inst_read::cpu02.inst          395                       # Instruction read bandwidth from this memory (bytes/s)
system.mem_ctrls.bw_inst_read::cpu03.inst          475                       # Instruction read bandwidth from this memory (bytes/s)
system.mem_ctrls.bw_inst_read::cpu04.inst          382                       # Instruction read bandwidth from this memory (bytes/s)
system.mem_ctrls.bw_inst_read::cpu05.inst          351                       # Instruction read bandwidth from this memory (bytes/s)
system.mem_ctrls.bw_inst_read::cpu06.inst         1147                       # Instruction read bandwidth from this memory (bytes/s)
system.mem_ctrls.bw_inst_read::cpu07.inst          192                       # Instruction read bandwidth from this memory (bytes/s)
system.mem_ctrls.bw_inst_read::cpu08.inst          476                       # Instruction read bandwidth from this memory (bytes/s)
system.mem_ctrls.bw_inst_read::cpu09.inst          127                       # Instruction read bandwidth from this memory (bytes/s)
system.mem_ctrls.bw_inst_read::cpu10.inst          282                       # Instruction read bandwidth from this memory (bytes/s)
system.mem_ctrls.bw_inst_read::cpu11.inst          392                       # Instruction read bandwidth from this memory (bytes/s)
system.mem_ctrls.bw_inst_read::cpu12.inst          229                       # Instruction read bandwidth from this memory (bytes/s)
system.mem_ctrls.bw_inst_read::cpu13.inst         1270                       # Instruction read bandwidth from this memory (bytes/s)
system.mem_ctrls.bw_inst_read::cpu14.inst         3972                       # Instruction read bandwidth from this memory (bytes/s)
system.mem_ctrls.bw_inst_read::cpu15.inst          960                       # Instruction read bandwidth from this memory (bytes/s)
system.mem_ctrls.bw_inst_read::total            12330                       # Instruction read bandwidth from this memory (bytes/s)
system.mem_ctrls.bw_write::writebacks           43056                       # Write bandwidth from this memory (bytes/s)
system.mem_ctrls.bw_write::total                43056                       # Write bandwidth from this memory (bytes/s)
system.mem_ctrls.bw_total::writebacks           43056                       # Total bandwidth to/from this memory (bytes/s)
system.mem_ctrls.bw_total::cpu00.dtb.walker           19                       # Total bandwidth to/from this memory (bytes/s)
system.mem_ctrls.bw_total::cpu00.itb.walker           16                       # Total bandwidth to/from this memory (bytes/s)
system.mem_ctrls.bw_total::cpu00.inst            1338                       # Total bandwidth to/from this memory (bytes/s)
system.mem_ctrls.bw_total::cpu00.data           18333                       # Total bandwidth to/from this memory (bytes/s)
system.mem_ctrls.bw_total::cpu01.dtb.walker           26                       # Total bandwidth to/from this memory (bytes/s)
system.mem_ctrls.bw_total::cpu01.itb.walker            5                       # Total bandwidth to/from this memory (bytes/s)
system.mem_ctrls.bw_total::cpu01.inst             342                       # Total bandwidth to/from this memory (bytes/s)
system.mem_ctrls.bw_total::cpu01.data            1950                       # Total bandwidth to/from this memory (bytes/s)
system.mem_ctrls.bw_total::cpu02.dtb.walker            5                       # Total bandwidth to/from this memory (bytes/s)
system.mem_ctrls.bw_total::cpu02.itb.walker            4                       # Total bandwidth to/from this memory (bytes/s)
system.mem_ctrls.bw_total::cpu02.inst             395                       # Total bandwidth to/from this memory (bytes/s)
system.mem_ctrls.bw_total::cpu02.data             618                       # Total bandwidth to/from this memory (bytes/s)
system.mem_ctrls.bw_total::cpu03.dtb.walker            7                       # Total bandwidth to/from this memory (bytes/s)
system.mem_ctrls.bw_total::cpu03.itb.walker            3                       # Total bandwidth to/from this memory (bytes/s)
system.mem_ctrls.bw_total::cpu03.inst             475                       # Total bandwidth to/from this memory (bytes/s)
system.mem_ctrls.bw_total::cpu03.data            1030                       # Total bandwidth to/from this memory (bytes/s)
system.mem_ctrls.bw_total::cpu04.dtb.walker            9                       # Total bandwidth to/from this memory (bytes/s)
system.mem_ctrls.bw_total::cpu04.itb.walker            4                       # Total bandwidth to/from this memory (bytes/s)
system.mem_ctrls.bw_total::cpu04.inst             382                       # Total bandwidth to/from this memory (bytes/s)
system.mem_ctrls.bw_total::cpu04.data             562                       # Total bandwidth to/from this memory (bytes/s)
system.mem_ctrls.bw_total::cpu05.dtb.walker            4                       # Total bandwidth to/from this memory (bytes/s)
system.mem_ctrls.bw_total::cpu05.itb.walker            3                       # Total bandwidth to/from this memory (bytes/s)
system.mem_ctrls.bw_total::cpu05.inst             351                       # Total bandwidth to/from this memory (bytes/s)
system.mem_ctrls.bw_total::cpu05.data             784                       # Total bandwidth to/from this memory (bytes/s)
system.mem_ctrls.bw_total::cpu06.dtb.walker          979                       # Total bandwidth to/from this memory (bytes/s)
system.mem_ctrls.bw_total::cpu06.itb.walker           20                       # Total bandwidth to/from this memory (bytes/s)
system.mem_ctrls.bw_total::cpu06.inst            1147                       # Total bandwidth to/from this memory (bytes/s)
system.mem_ctrls.bw_total::cpu06.data           41401                       # Total bandwidth to/from this memory (bytes/s)
system.mem_ctrls.bw_total::cpu07.dtb.walker            3                       # Total bandwidth to/from this memory (bytes/s)
system.mem_ctrls.bw_total::cpu07.itb.walker            1                       # Total bandwidth to/from this memory (bytes/s)
system.mem_ctrls.bw_total::cpu07.inst             192                       # Total bandwidth to/from this memory (bytes/s)
system.mem_ctrls.bw_total::cpu07.data             325                       # Total bandwidth to/from this memory (bytes/s)
system.mem_ctrls.bw_total::cpu08.dtb.walker            6                       # Total bandwidth to/from this memory (bytes/s)
system.mem_ctrls.bw_total::cpu08.itb.walker            6                       # Total bandwidth to/from this memory (bytes/s)
system.mem_ctrls.bw_total::cpu08.inst             476                       # Total bandwidth to/from this memory (bytes/s)
system.mem_ctrls.bw_total::cpu08.data             769                       # Total bandwidth to/from this memory (bytes/s)
system.mem_ctrls.bw_total::cpu09.dtb.walker            2                       # Total bandwidth to/from this memory (bytes/s)
system.mem_ctrls.bw_total::cpu09.itb.walker            1                       # Total bandwidth to/from this memory (bytes/s)
system.mem_ctrls.bw_total::cpu09.inst             127                       # Total bandwidth to/from this memory (bytes/s)
system.mem_ctrls.bw_total::cpu09.data             294                       # Total bandwidth to/from this memory (bytes/s)
system.mem_ctrls.bw_total::cpu10.dtb.walker            6                       # Total bandwidth to/from this memory (bytes/s)
system.mem_ctrls.bw_total::cpu10.itb.walker            5                       # Total bandwidth to/from this memory (bytes/s)
system.mem_ctrls.bw_total::cpu10.inst             282                       # Total bandwidth to/from this memory (bytes/s)
system.mem_ctrls.bw_total::cpu10.data             906                       # Total bandwidth to/from this memory (bytes/s)
system.mem_ctrls.bw_total::cpu11.dtb.walker            6                       # Total bandwidth to/from this memory (bytes/s)
system.mem_ctrls.bw_total::cpu11.itb.walker            4                       # Total bandwidth to/from this memory (bytes/s)
system.mem_ctrls.bw_total::cpu11.inst             392                       # Total bandwidth to/from this memory (bytes/s)
system.mem_ctrls.bw_total::cpu11.data            1144                       # Total bandwidth to/from this memory (bytes/s)
system.mem_ctrls.bw_total::cpu12.dtb.walker            5                       # Total bandwidth to/from this memory (bytes/s)
system.mem_ctrls.bw_total::cpu12.itb.walker            3                       # Total bandwidth to/from this memory (bytes/s)
system.mem_ctrls.bw_total::cpu12.inst             229                       # Total bandwidth to/from this memory (bytes/s)
system.mem_ctrls.bw_total::cpu12.data             687                       # Total bandwidth to/from this memory (bytes/s)
system.mem_ctrls.bw_total::cpu13.dtb.walker           41                       # Total bandwidth to/from this memory (bytes/s)
system.mem_ctrls.bw_total::cpu13.itb.walker           57                       # Total bandwidth to/from this memory (bytes/s)
system.mem_ctrls.bw_total::cpu13.inst            1270                       # Total bandwidth to/from this memory (bytes/s)
system.mem_ctrls.bw_total::cpu13.data            1211                       # Total bandwidth to/from this memory (bytes/s)
system.mem_ctrls.bw_total::cpu14.dtb.walker          257                       # Total bandwidth to/from this memory (bytes/s)
system.mem_ctrls.bw_total::cpu14.itb.walker          206                       # Total bandwidth to/from this memory (bytes/s)
system.mem_ctrls.bw_total::cpu14.inst            3972                       # Total bandwidth to/from this memory (bytes/s)
system.mem_ctrls.bw_total::cpu14.data            3259                       # Total bandwidth to/from this memory (bytes/s)
system.mem_ctrls.bw_total::cpu15.dtb.walker           22                       # Total bandwidth to/from this memory (bytes/s)
system.mem_ctrls.bw_total::cpu15.itb.walker           21                       # Total bandwidth to/from this memory (bytes/s)
system.mem_ctrls.bw_total::cpu15.inst             960                       # Total bandwidth to/from this memory (bytes/s)
system.mem_ctrls.bw_total::cpu15.data            2352                       # Total bandwidth to/from this memory (bytes/s)
system.mem_ctrls.bw_total::total               132765                       # Total bandwidth to/from this memory (bytes/s)
system.mem_ctrls.readReqs                           0                       # Number of read requests accepted
system.mem_ctrls.writeReqs                          0                       # Number of write requests accepted
system.mem_ctrls.readBursts                         0                       # Number of DRAM read bursts, including those serviced by the write queue
system.mem_ctrls.writeBursts                        0                       # Number of DRAM write bursts, including those merged in the write queue
system.mem_ctrls.bytesReadDRAM                      0                       # Total number of bytes read from DRAM
system.mem_ctrls.bytesReadWrQ                       0                       # Total number of bytes read from write queue
system.mem_ctrls.bytesWritten                       0                       # Total number of bytes written to DRAM
system.mem_ctrls.bytesReadSys                       0                       # Total read bytes from the system interface side
system.mem_ctrls.bytesWrittenSys                    0                       # Total written bytes from the system interface side
system.mem_ctrls.servicedByWrQ                      0                       # Number of DRAM read bursts serviced by the write queue
system.mem_ctrls.mergedWrBursts                     0                       # Number of DRAM write bursts merged with an existing one
system.mem_ctrls.neitherReadNorWriteReqs            0                       # Number of requests that are neither read nor write
system.mem_ctrls.perBankRdBursts::0                 0                       # Per bank write bursts
system.mem_ctrls.perBankRdBursts::1                 0                       # Per bank write bursts
system.mem_ctrls.perBankRdBursts::2                 0                       # Per bank write bursts
system.mem_ctrls.perBankRdBursts::3                 0                       # Per bank write bursts
system.mem_ctrls.perBankRdBursts::4                 0                       # Per bank write bursts
system.mem_ctrls.perBankRdBursts::5                 0                       # Per bank write bursts
system.mem_ctrls.perBankRdBursts::6                 0                       # Per bank write bursts
system.mem_ctrls.perBankRdBursts::7                 0                       # Per bank write bursts
system.mem_ctrls.perBankRdBursts::8                 0                       # Per bank write bursts
system.mem_ctrls.perBankRdBursts::9                 0                       # Per bank write bursts
system.mem_ctrls.perBankRdBursts::10                0                       # Per bank write bursts
system.mem_ctrls.perBankRdBursts::11                0                       # Per bank write bursts
system.mem_ctrls.perBankRdBursts::12                0                       # Per bank write bursts
system.mem_ctrls.perBankRdBursts::13                0                       # Per bank write bursts
system.mem_ctrls.perBankRdBursts::14                0                       # Per bank write bursts
system.mem_ctrls.perBankRdBursts::15                0                       # Per bank write bursts
system.mem_ctrls.perBankRdBursts::16                0                       # Per bank write bursts
system.mem_ctrls.perBankRdBursts::17                0                       # Per bank write bursts
system.mem_ctrls.perBankRdBursts::18                0                       # Per bank write bursts
system.mem_ctrls.perBankRdBursts::19                0                       # Per bank write bursts
system.mem_ctrls.perBankRdBursts::20                0                       # Per bank write bursts
system.mem_ctrls.perBankRdBursts::21                0                       # Per bank write bursts
system.mem_ctrls.perBankRdBursts::22                0                       # Per bank write bursts
system.mem_ctrls.perBankRdBursts::23                0                       # Per bank write bursts
system.mem_ctrls.perBankRdBursts::24                0                       # Per bank write bursts
system.mem_ctrls.perBankRdBursts::25                0                       # Per bank write bursts
system.mem_ctrls.perBankRdBursts::26                0                       # Per bank write bursts
system.mem_ctrls.perBankRdBursts::27                0                       # Per bank write bursts
system.mem_ctrls.perBankRdBursts::28                0                       # Per bank write bursts
system.mem_ctrls.perBankRdBursts::29                0                       # Per bank write bursts
system.mem_ctrls.perBankRdBursts::30                0                       # Per bank write bursts
system.mem_ctrls.perBankRdBursts::31                0                       # Per bank write bursts
system.mem_ctrls.perBankWrBursts::0                 0                       # Per bank write bursts
system.mem_ctrls.perBankWrBursts::1                 0                       # Per bank write bursts
system.mem_ctrls.perBankWrBursts::2                 0                       # Per bank write bursts
system.mem_ctrls.perBankWrBursts::3                 0                       # Per bank write bursts
system.mem_ctrls.perBankWrBursts::4                 0                       # Per bank write bursts
system.mem_ctrls.perBankWrBursts::5                 0                       # Per bank write bursts
system.mem_ctrls.perBankWrBursts::6                 0                       # Per bank write bursts
system.mem_ctrls.perBankWrBursts::7                 0                       # Per bank write bursts
system.mem_ctrls.perBankWrBursts::8                 0                       # Per bank write bursts
system.mem_ctrls.perBankWrBursts::9                 0                       # Per bank write bursts
system.mem_ctrls.perBankWrBursts::10                0                       # Per bank write bursts
system.mem_ctrls.perBankWrBursts::11                0                       # Per bank write bursts
system.mem_ctrls.perBankWrBursts::12                0                       # Per bank write bursts
system.mem_ctrls.perBankWrBursts::13                0                       # Per bank write bursts
system.mem_ctrls.perBankWrBursts::14                0                       # Per bank write bursts
system.mem_ctrls.perBankWrBursts::15                0                       # Per bank write bursts
system.mem_ctrls.perBankWrBursts::16                0                       # Per bank write bursts
system.mem_ctrls.perBankWrBursts::17                0                       # Per bank write bursts
system.mem_ctrls.perBankWrBursts::18                0                       # Per bank write bursts
system.mem_ctrls.perBankWrBursts::19                0                       # Per bank write bursts
system.mem_ctrls.perBankWrBursts::20                0                       # Per bank write bursts
system.mem_ctrls.perBankWrBursts::21                0                       # Per bank write bursts
system.mem_ctrls.perBankWrBursts::22                0                       # Per bank write bursts
system.mem_ctrls.perBankWrBursts::23                0                       # Per bank write bursts
system.mem_ctrls.perBankWrBursts::24                0                       # Per bank write bursts
system.mem_ctrls.perBankWrBursts::25                0                       # Per bank write bursts
system.mem_ctrls.perBankWrBursts::26                0                       # Per bank write bursts
system.mem_ctrls.perBankWrBursts::27                0                       # Per bank write bursts
system.mem_ctrls.perBankWrBursts::28                0                       # Per bank write bursts
system.mem_ctrls.perBankWrBursts::29                0                       # Per bank write bursts
system.mem_ctrls.perBankWrBursts::30                0                       # Per bank write bursts
system.mem_ctrls.perBankWrBursts::31                0                       # Per bank write bursts
system.mem_ctrls.numRdRetry                         0                       # Number of times read queue was full causing retry
system.mem_ctrls.numWrRetry                         0                       # Number of times write queue was full causing retry
system.mem_ctrls.totGap                             0                       # Total gap between requests
system.mem_ctrls.readPktSize::0                     0                       # Read request sizes (log2)
system.mem_ctrls.readPktSize::1                     0                       # Read request sizes (log2)
system.mem_ctrls.readPktSize::2                     0                       # Read request sizes (log2)
system.mem_ctrls.readPktSize::3                     0                       # Read request sizes (log2)
system.mem_ctrls.readPktSize::4                     0                       # Read request sizes (log2)
system.mem_ctrls.readPktSize::5                     0                       # Read request sizes (log2)
system.mem_ctrls.readPktSize::6                     0                       # Read request sizes (log2)
system.mem_ctrls.writePktSize::0                    0                       # Write request sizes (log2)
system.mem_ctrls.writePktSize::1                    0                       # Write request sizes (log2)
system.mem_ctrls.writePktSize::2                    0                       # Write request sizes (log2)
system.mem_ctrls.writePktSize::3                    0                       # Write request sizes (log2)
system.mem_ctrls.writePktSize::4                    0                       # Write request sizes (log2)
system.mem_ctrls.writePktSize::5                    0                       # Write request sizes (log2)
system.mem_ctrls.writePktSize::6                    0                       # Write request sizes (log2)
system.mem_ctrls.rdQLenPdf::0                       0                       # What read queue length does an incoming req see
system.mem_ctrls.rdQLenPdf::1                       0                       # What read queue length does an incoming req see
system.mem_ctrls.rdQLenPdf::2                       0                       # What read queue length does an incoming req see
system.mem_ctrls.rdQLenPdf::3                       0                       # What read queue length does an incoming req see
system.mem_ctrls.rdQLenPdf::4                       0                       # What read queue length does an incoming req see
system.mem_ctrls.rdQLenPdf::5                       0                       # What read queue length does an incoming req see
system.mem_ctrls.rdQLenPdf::6                       0                       # What read queue length does an incoming req see
system.mem_ctrls.rdQLenPdf::7                       0                       # What read queue length does an incoming req see
system.mem_ctrls.rdQLenPdf::8                       0                       # What read queue length does an incoming req see
system.mem_ctrls.rdQLenPdf::9                       0                       # What read queue length does an incoming req see
system.mem_ctrls.rdQLenPdf::10                      0                       # What read queue length does an incoming req see
system.mem_ctrls.rdQLenPdf::11                      0                       # What read queue length does an incoming req see
system.mem_ctrls.rdQLenPdf::12                      0                       # What read queue length does an incoming req see
system.mem_ctrls.rdQLenPdf::13                      0                       # What read queue length does an incoming req see
system.mem_ctrls.rdQLenPdf::14                      0                       # What read queue length does an incoming req see
system.mem_ctrls.rdQLenPdf::15                      0                       # What read queue length does an incoming req see
system.mem_ctrls.rdQLenPdf::16                      0                       # What read queue length does an incoming req see
system.mem_ctrls.rdQLenPdf::17                      0                       # What read queue length does an incoming req see
system.mem_ctrls.rdQLenPdf::18                      0                       # What read queue length does an incoming req see
system.mem_ctrls.rdQLenPdf::19                      0                       # What read queue length does an incoming req see
system.mem_ctrls.rdQLenPdf::20                      0                       # What read queue length does an incoming req see
system.mem_ctrls.rdQLenPdf::21                      0                       # What read queue length does an incoming req see
system.mem_ctrls.rdQLenPdf::22                      0                       # What read queue length does an incoming req see
system.mem_ctrls.rdQLenPdf::23                      0                       # What read queue length does an incoming req see
system.mem_ctrls.rdQLenPdf::24                      0                       # What read queue length does an incoming req see
system.mem_ctrls.rdQLenPdf::25                      0                       # What read queue length does an incoming req see
system.mem_ctrls.rdQLenPdf::26                      0                       # What read queue length does an incoming req see
system.mem_ctrls.rdQLenPdf::27                      0                       # What read queue length does an incoming req see
system.mem_ctrls.rdQLenPdf::28                      0                       # What read queue length does an incoming req see
system.mem_ctrls.rdQLenPdf::29                      0                       # What read queue length does an incoming req see
system.mem_ctrls.rdQLenPdf::30                      0                       # What read queue length does an incoming req see
system.mem_ctrls.rdQLenPdf::31                      0                       # What read queue length does an incoming req see
system.mem_ctrls.rdQLenPdf::32                      0                       # What read queue length does an incoming req see
system.mem_ctrls.rdQLenPdf::33                      0                       # What read queue length does an incoming req see
system.mem_ctrls.rdQLenPdf::34                      0                       # What read queue length does an incoming req see
system.mem_ctrls.rdQLenPdf::35                      0                       # What read queue length does an incoming req see
system.mem_ctrls.rdQLenPdf::36                      0                       # What read queue length does an incoming req see
system.mem_ctrls.rdQLenPdf::37                      0                       # What read queue length does an incoming req see
system.mem_ctrls.rdQLenPdf::38                      0                       # What read queue length does an incoming req see
system.mem_ctrls.rdQLenPdf::39                      0                       # What read queue length does an incoming req see
system.mem_ctrls.rdQLenPdf::40                      0                       # What read queue length does an incoming req see
system.mem_ctrls.rdQLenPdf::41                      0                       # What read queue length does an incoming req see
system.mem_ctrls.rdQLenPdf::42                      0                       # What read queue length does an incoming req see
system.mem_ctrls.rdQLenPdf::43                      0                       # What read queue length does an incoming req see
system.mem_ctrls.rdQLenPdf::44                      0                       # What read queue length does an incoming req see
system.mem_ctrls.rdQLenPdf::45                      0                       # What read queue length does an incoming req see
system.mem_ctrls.rdQLenPdf::46                      0                       # What read queue length does an incoming req see
system.mem_ctrls.rdQLenPdf::47                      0                       # What read queue length does an incoming req see
system.mem_ctrls.rdQLenPdf::48                      0                       # What read queue length does an incoming req see
system.mem_ctrls.rdQLenPdf::49                      0                       # What read queue length does an incoming req see
system.mem_ctrls.rdQLenPdf::50                      0                       # What read queue length does an incoming req see
system.mem_ctrls.rdQLenPdf::51                      0                       # What read queue length does an incoming req see
system.mem_ctrls.rdQLenPdf::52                      0                       # What read queue length does an incoming req see
system.mem_ctrls.rdQLenPdf::53                      0                       # What read queue length does an incoming req see
system.mem_ctrls.rdQLenPdf::54                      0                       # What read queue length does an incoming req see
system.mem_ctrls.rdQLenPdf::55                      0                       # What read queue length does an incoming req see
system.mem_ctrls.rdQLenPdf::56                      0                       # What read queue length does an incoming req see
system.mem_ctrls.rdQLenPdf::57                      0                       # What read queue length does an incoming req see
system.mem_ctrls.rdQLenPdf::58                      0                       # What read queue length does an incoming req see
system.mem_ctrls.rdQLenPdf::59                      0                       # What read queue length does an incoming req see
system.mem_ctrls.rdQLenPdf::60                      0                       # What read queue length does an incoming req see
system.mem_ctrls.rdQLenPdf::61                      0                       # What read queue length does an incoming req see
system.mem_ctrls.rdQLenPdf::62                      0                       # What read queue length does an incoming req see
system.mem_ctrls.rdQLenPdf::63                      0                       # What read queue length does an incoming req see
system.mem_ctrls.wrQLenPdf::0                       0                       # What write queue length does an incoming req see
system.mem_ctrls.wrQLenPdf::1                       0                       # What write queue length does an incoming req see
system.mem_ctrls.wrQLenPdf::2                       0                       # What write queue length does an incoming req see
system.mem_ctrls.wrQLenPdf::3                       0                       # What write queue length does an incoming req see
system.mem_ctrls.wrQLenPdf::4                       0                       # What write queue length does an incoming req see
system.mem_ctrls.wrQLenPdf::5                       0                       # What write queue length does an incoming req see
system.mem_ctrls.wrQLenPdf::6                       0                       # What write queue length does an incoming req see
system.mem_ctrls.wrQLenPdf::7                       0                       # What write queue length does an incoming req see
system.mem_ctrls.wrQLenPdf::8                       0                       # What write queue length does an incoming req see
system.mem_ctrls.wrQLenPdf::9                       0                       # What write queue length does an incoming req see
system.mem_ctrls.wrQLenPdf::10                      0                       # What write queue length does an incoming req see
system.mem_ctrls.wrQLenPdf::11                      0                       # What write queue length does an incoming req see
system.mem_ctrls.wrQLenPdf::12                      0                       # What write queue length does an incoming req see
system.mem_ctrls.wrQLenPdf::13                      0                       # What write queue length does an incoming req see
system.mem_ctrls.wrQLenPdf::14                      0                       # What write queue length does an incoming req see
system.mem_ctrls.wrQLenPdf::15                      0                       # What write queue length does an incoming req see
system.mem_ctrls.wrQLenPdf::16                      0                       # What write queue length does an incoming req see
system.mem_ctrls.wrQLenPdf::17                      0                       # What write queue length does an incoming req see
system.mem_ctrls.wrQLenPdf::18                      0                       # What write queue length does an incoming req see
system.mem_ctrls.wrQLenPdf::19                      0                       # What write queue length does an incoming req see
system.mem_ctrls.wrQLenPdf::20                      0                       # What write queue length does an incoming req see
system.mem_ctrls.wrQLenPdf::21                      0                       # What write queue length does an incoming req see
system.mem_ctrls.wrQLenPdf::22                      0                       # What write queue length does an incoming req see
system.mem_ctrls.wrQLenPdf::23                      0                       # What write queue length does an incoming req see
system.mem_ctrls.wrQLenPdf::24                      0                       # What write queue length does an incoming req see
system.mem_ctrls.wrQLenPdf::25                      0                       # What write queue length does an incoming req see
system.mem_ctrls.wrQLenPdf::26                      0                       # What write queue length does an incoming req see
system.mem_ctrls.wrQLenPdf::27                      0                       # What write queue length does an incoming req see
system.mem_ctrls.wrQLenPdf::28                      0                       # What write queue length does an incoming req see
system.mem_ctrls.wrQLenPdf::29                      0                       # What write queue length does an incoming req see
system.mem_ctrls.wrQLenPdf::30                      0                       # What write queue length does an incoming req see
system.mem_ctrls.wrQLenPdf::31                      0                       # What write queue length does an incoming req see
system.mem_ctrls.wrQLenPdf::32                      0                       # What write queue length does an incoming req see
system.mem_ctrls.wrQLenPdf::33                      0                       # What write queue length does an incoming req see
system.mem_ctrls.wrQLenPdf::34                      0                       # What write queue length does an incoming req see
system.mem_ctrls.wrQLenPdf::35                      0                       # What write queue length does an incoming req see
system.mem_ctrls.wrQLenPdf::36                      0                       # What write queue length does an incoming req see
system.mem_ctrls.wrQLenPdf::37                      0                       # What write queue length does an incoming req see
system.mem_ctrls.wrQLenPdf::38                      0                       # What write queue length does an incoming req see
system.mem_ctrls.wrQLenPdf::39                      0                       # What write queue length does an incoming req see
system.mem_ctrls.wrQLenPdf::40                      0                       # What write queue length does an incoming req see
system.mem_ctrls.wrQLenPdf::41                      0                       # What write queue length does an incoming req see
system.mem_ctrls.wrQLenPdf::42                      0                       # What write queue length does an incoming req see
system.mem_ctrls.wrQLenPdf::43                      0                       # What write queue length does an incoming req see
system.mem_ctrls.wrQLenPdf::44                      0                       # What write queue length does an incoming req see
system.mem_ctrls.wrQLenPdf::45                      0                       # What write queue length does an incoming req see
system.mem_ctrls.wrQLenPdf::46                      0                       # What write queue length does an incoming req see
system.mem_ctrls.wrQLenPdf::47                      0                       # What write queue length does an incoming req see
system.mem_ctrls.wrQLenPdf::48                      0                       # What write queue length does an incoming req see
system.mem_ctrls.wrQLenPdf::49                      0                       # What write queue length does an incoming req see
system.mem_ctrls.wrQLenPdf::50                      0                       # What write queue length does an incoming req see
system.mem_ctrls.wrQLenPdf::51                      0                       # What write queue length does an incoming req see
system.mem_ctrls.wrQLenPdf::52                      0                       # What write queue length does an incoming req see
system.mem_ctrls.wrQLenPdf::53                      0                       # What write queue length does an incoming req see
system.mem_ctrls.wrQLenPdf::54                      0                       # What write queue length does an incoming req see
system.mem_ctrls.wrQLenPdf::55                      0                       # What write queue length does an incoming req see
system.mem_ctrls.wrQLenPdf::56                      0                       # What write queue length does an incoming req see
system.mem_ctrls.wrQLenPdf::57                      0                       # What write queue length does an incoming req see
system.mem_ctrls.wrQLenPdf::58                      0                       # What write queue length does an incoming req see
system.mem_ctrls.wrQLenPdf::59                      0                       # What write queue length does an incoming req see
system.mem_ctrls.wrQLenPdf::60                      0                       # What write queue length does an incoming req see
system.mem_ctrls.wrQLenPdf::61                      0                       # What write queue length does an incoming req see
system.mem_ctrls.wrQLenPdf::62                      0                       # What write queue length does an incoming req see
system.mem_ctrls.wrQLenPdf::63                      0                       # What write queue length does an incoming req see
system.mem_ctrls.wrQLenPdf::64                      0                       # What write queue length does an incoming req see
system.mem_ctrls.wrQLenPdf::65                      0                       # What write queue length does an incoming req see
system.mem_ctrls.wrQLenPdf::66                      0                       # What write queue length does an incoming req see
system.mem_ctrls.wrQLenPdf::67                      0                       # What write queue length does an incoming req see
system.mem_ctrls.wrQLenPdf::68                      0                       # What write queue length does an incoming req see
system.mem_ctrls.wrQLenPdf::69                      0                       # What write queue length does an incoming req see
system.mem_ctrls.wrQLenPdf::70                      0                       # What write queue length does an incoming req see
system.mem_ctrls.wrQLenPdf::71                      0                       # What write queue length does an incoming req see
system.mem_ctrls.wrQLenPdf::72                      0                       # What write queue length does an incoming req see
system.mem_ctrls.wrQLenPdf::73                      0                       # What write queue length does an incoming req see
system.mem_ctrls.wrQLenPdf::74                      0                       # What write queue length does an incoming req see
system.mem_ctrls.wrQLenPdf::75                      0                       # What write queue length does an incoming req see
system.mem_ctrls.wrQLenPdf::76                      0                       # What write queue length does an incoming req see
system.mem_ctrls.wrQLenPdf::77                      0                       # What write queue length does an incoming req see
system.mem_ctrls.wrQLenPdf::78                      0                       # What write queue length does an incoming req see
system.mem_ctrls.wrQLenPdf::79                      0                       # What write queue length does an incoming req see
system.mem_ctrls.wrQLenPdf::80                      0                       # What write queue length does an incoming req see
system.mem_ctrls.wrQLenPdf::81                      0                       # What write queue length does an incoming req see
system.mem_ctrls.wrQLenPdf::82                      0                       # What write queue length does an incoming req see
system.mem_ctrls.wrQLenPdf::83                      0                       # What write queue length does an incoming req see
system.mem_ctrls.wrQLenPdf::84                      0                       # What write queue length does an incoming req see
system.mem_ctrls.wrQLenPdf::85                      0                       # What write queue length does an incoming req see
system.mem_ctrls.wrQLenPdf::86                      0                       # What write queue length does an incoming req see
system.mem_ctrls.wrQLenPdf::87                      0                       # What write queue length does an incoming req see
system.mem_ctrls.wrQLenPdf::88                      0                       # What write queue length does an incoming req see
system.mem_ctrls.wrQLenPdf::89                      0                       # What write queue length does an incoming req see
system.mem_ctrls.wrQLenPdf::90                      0                       # What write queue length does an incoming req see
system.mem_ctrls.wrQLenPdf::91                      0                       # What write queue length does an incoming req see
system.mem_ctrls.wrQLenPdf::92                      0                       # What write queue length does an incoming req see
system.mem_ctrls.wrQLenPdf::93                      0                       # What write queue length does an incoming req see
system.mem_ctrls.wrQLenPdf::94                      0                       # What write queue length does an incoming req see
system.mem_ctrls.wrQLenPdf::95                      0                       # What write queue length does an incoming req see
system.mem_ctrls.wrQLenPdf::96                      0                       # What write queue length does an incoming req see
system.mem_ctrls.wrQLenPdf::97                      0                       # What write queue length does an incoming req see
system.mem_ctrls.wrQLenPdf::98                      0                       # What write queue length does an incoming req see
system.mem_ctrls.wrQLenPdf::99                      0                       # What write queue length does an incoming req see
system.mem_ctrls.wrQLenPdf::100                     0                       # What write queue length does an incoming req see
system.mem_ctrls.wrQLenPdf::101                     0                       # What write queue length does an incoming req see
system.mem_ctrls.wrQLenPdf::102                     0                       # What write queue length does an incoming req see
system.mem_ctrls.wrQLenPdf::103                     0                       # What write queue length does an incoming req see
system.mem_ctrls.wrQLenPdf::104                     0                       # What write queue length does an incoming req see
system.mem_ctrls.wrQLenPdf::105                     0                       # What write queue length does an incoming req see
system.mem_ctrls.wrQLenPdf::106                     0                       # What write queue length does an incoming req see
system.mem_ctrls.wrQLenPdf::107                     0                       # What write queue length does an incoming req see
system.mem_ctrls.wrQLenPdf::108                     0                       # What write queue length does an incoming req see
system.mem_ctrls.wrQLenPdf::109                     0                       # What write queue length does an incoming req see
system.mem_ctrls.wrQLenPdf::110                     0                       # What write queue length does an incoming req see
system.mem_ctrls.wrQLenPdf::111                     0                       # What write queue length does an incoming req see
system.mem_ctrls.wrQLenPdf::112                     0                       # What write queue length does an incoming req see
system.mem_ctrls.wrQLenPdf::113                     0                       # What write queue length does an incoming req see
system.mem_ctrls.wrQLenPdf::114                     0                       # What write queue length does an incoming req see
system.mem_ctrls.wrQLenPdf::115                     0                       # What write queue length does an incoming req see
system.mem_ctrls.wrQLenPdf::116                     0                       # What write queue length does an incoming req see
system.mem_ctrls.wrQLenPdf::117                     0                       # What write queue length does an incoming req see
system.mem_ctrls.wrQLenPdf::118                     0                       # What write queue length does an incoming req see
system.mem_ctrls.wrQLenPdf::119                     0                       # What write queue length does an incoming req see
system.mem_ctrls.wrQLenPdf::120                     0                       # What write queue length does an incoming req see
system.mem_ctrls.wrQLenPdf::121                     0                       # What write queue length does an incoming req see
system.mem_ctrls.wrQLenPdf::122                     0                       # What write queue length does an incoming req see
system.mem_ctrls.wrQLenPdf::123                     0                       # What write queue length does an incoming req see
system.mem_ctrls.wrQLenPdf::124                     0                       # What write queue length does an incoming req see
system.mem_ctrls.wrQLenPdf::125                     0                       # What write queue length does an incoming req see
system.mem_ctrls.wrQLenPdf::126                     0                       # What write queue length does an incoming req see
system.mem_ctrls.wrQLenPdf::127                     0                       # What write queue length does an incoming req see
system.mem_ctrls.totQLat                            0                       # Total ticks spent queuing
system.mem_ctrls.totMemAccLat                       0                       # Total ticks spent from burst creation until serviced by the DRAM
system.mem_ctrls.totBusLat                          0                       # Total ticks spent in databus transfers
system.mem_ctrls.avgQLat                          nan                       # Average queueing delay per DRAM burst
system.mem_ctrls.avgBusLat                        nan                       # Average bus latency per DRAM burst
system.mem_ctrls.avgMemAccLat                     nan                       # Average memory access latency per DRAM burst
system.mem_ctrls.avgRdBW                         0.00                       # Average DRAM read bandwidth in MiByte/s
system.mem_ctrls.avgWrBW                         0.00                       # Average achieved write bandwidth in MiByte/s
system.mem_ctrls.avgRdBWSys                      0.00                       # Average system read bandwidth in MiByte/s
system.mem_ctrls.avgWrBWSys                      0.00                       # Average system write bandwidth in MiByte/s
system.mem_ctrls.peakBW                      19207.00                       # Theoretical peak bandwidth in MiByte/s
system.mem_ctrls.busUtil                         0.00                       # Data bus utilization in percentage
system.mem_ctrls.busUtilRead                     0.00                       # Data bus utilization in percentage for reads
system.mem_ctrls.busUtilWrite                    0.00                       # Data bus utilization in percentage for writes
system.mem_ctrls.avgRdQLen                       0.00                       # Average read queue length when enqueuing
system.mem_ctrls.avgWrQLen                       0.00                       # Average write queue length when enqueuing
system.mem_ctrls.readRowHits                        0                       # Number of row buffer hits during reads
system.mem_ctrls.writeRowHits                       0                       # Number of row buffer hits during writes
system.mem_ctrls.readRowHitRate                   nan                       # Row buffer hit rate for reads
system.mem_ctrls.writeRowHitRate                  nan                       # Row buffer hit rate for writes
system.mem_ctrls.avgGap                           nan                       # Average gap between requests
system.mem_ctrls.pageHitRate                      nan                       # Row buffer hit rate, read and write combined
system.mem_ctrls_0.actEnergy                        0                       # Energy for activate commands per rank (pJ)
system.mem_ctrls_0.preEnergy                        0                       # Energy for precharge commands per rank (pJ)
system.mem_ctrls_0.readEnergy                       0                       # Energy for read commands per rank (pJ)
system.mem_ctrls_0.writeEnergy                      0                       # Energy for write commands per rank (pJ)
system.mem_ctrls_0.refreshEnergy                    0                       # Energy for refresh commands per rank (pJ)
system.mem_ctrls_0.actBackEnergy                    0                       # Energy for active background per rank (pJ)
system.mem_ctrls_0.preBackEnergy         681270970762233                       # Energy for precharge background per rank (pJ)
system.mem_ctrls_0.actPowerDownEnergy               0                       # Energy for active power-down per rank (pJ)
system.mem_ctrls_0.prePowerDownEnergy               0                       # Energy for precharge power-down per rank (pJ)
system.mem_ctrls_0.selfRefreshEnergy                0                       # Energy for self refresh per rank (pJ)
system.mem_ctrls_0.totalEnergy           681270970762233                       # Total energy per rank (pJ)
system.mem_ctrls_0.averagePower            163.200000                       # Core power per rank (mW)
system.mem_ctrls_0.totalIdleTime                    0                       # Total Idle time Per DRAM Rank
system.mem_ctrls_0.memoryStateTime::IDLE 10921577532491000                       # Time in different power states
system.mem_ctrls_0.memoryStateTime::REF             0                       # Time in different power states
system.mem_ctrls_0.memoryStateTime::SREF            0                       # Time in different power states
system.mem_ctrls_0.memoryStateTime::PRE_PDN            0                       # Time in different power states
system.mem_ctrls_0.memoryStateTime::ACT             0                       # Time in different power states
system.mem_ctrls_0.memoryStateTime::ACT_PDN            0                       # Time in different power states
system.mem_ctrls_1.actEnergy                        0                       # Energy for activate commands per rank (pJ)
system.mem_ctrls_1.preEnergy                        0                       # Energy for precharge commands per rank (pJ)
system.mem_ctrls_1.readEnergy                       0                       # Energy for read commands per rank (pJ)
system.mem_ctrls_1.writeEnergy                      0                       # Energy for write commands per rank (pJ)
system.mem_ctrls_1.refreshEnergy                    0                       # Energy for refresh commands per rank (pJ)
system.mem_ctrls_1.actBackEnergy                    0                       # Energy for active background per rank (pJ)
system.mem_ctrls_1.preBackEnergy         681270970762233                       # Energy for precharge background per rank (pJ)
system.mem_ctrls_1.actPowerDownEnergy               0                       # Energy for active power-down per rank (pJ)
system.mem_ctrls_1.prePowerDownEnergy               0                       # Energy for precharge power-down per rank (pJ)
system.mem_ctrls_1.selfRefreshEnergy                0                       # Energy for self refresh per rank (pJ)
[...]
system.tol2bus2.trans_dist::WriteResp            1561                       # Transaction distribution
system.tol2bus2.trans_dist::WritebackDirty       365068                       # Transaction distribution
system.tol2bus2.trans_dist::WritebackClean       633827                       # Transaction distribution
system.tol2bus2.trans_dist::CleanEvict         313369                       # Transaction distribution
system.tol2bus2.trans_dist::UpgradeReq          10590                       # Transaction distribution
system.tol2bus2.trans_dist::SCUpgradeReq        11296                       # Transaction distribution
system.tol2bus2.trans_dist::UpgradeResp         21886                       # Transaction distribution
system.tol2bus2.trans_dist::ReadExReq          114046                       # Transaction distribution
system.tol2bus2.trans_dist::ReadExResp         114046                       # Transaction distribution
system.tol2bus2.trans_dist::ReadCleanReq       635875                       # Transaction distribution
system.tol2bus2.trans_dist::ReadSharedReq       532196                       # Transaction distribution
system.tol2bus2.trans_dist::CleanSharedReq        49600                       # Transaction distribution
system.tol2bus2.trans_dist::CleanSharedResp        49600                       # Transaction distribution
system.tol2bus2.trans_dist::InvalidateReq        44743                       # Transaction distribution
system.tol2bus2.trans_dist::InvalidateResp        44743                       # Transaction distribution
system.tol2bus2.pkt_count_system.cpu08.icache.mem_side::system.l22.cpu_side       812803                       # Packet count per connected master and slave (bytes)
system.tol2bus2.pkt_count_system.cpu08.dcache.mem_side::system.l22.cpu_side       684385                       # Packet count per connected master and slave (bytes)
system.tol2bus2.pkt_count_system.cpu08.itb.walker.dma::system.l22.cpu_side       115778                       # Packet count per connected master and slave (bytes)
system.tol2bus2.pkt_count_system.cpu08.dtb.walker.dma::system.l22.cpu_side        67872                       # Packet count per connected master and slave (bytes)
system.tol2bus2.pkt_count_system.cpu09.icache.mem_side::system.l22.cpu_side       162532                       # Packet count per connected master and slave (bytes)
system.tol2bus2.pkt_count_system.cpu09.dcache.mem_side::system.l22.cpu_side       199809                       # Packet count per connected master and slave (bytes)
system.tol2bus2.pkt_count_system.cpu09.itb.walker.dma::system.l22.cpu_side        25236                       # Packet count per connected master and slave (bytes)
system.tol2bus2.pkt_count_system.cpu09.dtb.walker.dma::system.l22.cpu_side        17160                       # Packet count per connected master and slave (bytes)
system.tol2bus2.pkt_count_system.cpu10.icache.mem_side::system.l22.cpu_side       388729                       # Packet count per connected master and slave (bytes)
system.tol2bus2.pkt_count_system.cpu10.dcache.mem_side::system.l22.cpu_side       577982                       # Packet count per connected master and slave (bytes)
system.tol2bus2.pkt_count_system.cpu10.itb.walker.dma::system.l22.cpu_side        67338                       # Packet count per connected master and slave (bytes)
system.tol2bus2.pkt_count_system.cpu10.dtb.walker.dma::system.l22.cpu_side        74584                       # Packet count per connected master and slave (bytes)
system.tol2bus2.pkt_count_system.cpu11.icache.mem_side::system.l22.cpu_side       541513                       # Packet count per connected master and slave (bytes)
system.tol2bus2.pkt_count_system.cpu11.dcache.mem_side::system.l22.cpu_side       747443                       # Packet count per connected master and slave (bytes)
system.tol2bus2.pkt_count_system.cpu11.itb.walker.dma::system.l22.cpu_side        97958                       # Packet count per connected master and slave (bytes)
system.tol2bus2.pkt_count_system.cpu11.dtb.walker.dma::system.l22.cpu_side        98396                       # Packet count per connected master and slave (bytes)
system.tol2bus2.pkt_count::total              4679518                       # Packet count per connected master and slave (bytes)
system.tol2bus2.pkt_size_system.cpu08.icache.mem_side::system.l22.cpu_side     34668672                       # Cumulative packet size per connected master and slave (bytes)
system.tol2bus2.pkt_size_system.cpu08.dcache.mem_side::system.l22.cpu_side     18279875                       # Cumulative packet size per connected master and slave (bytes)
system.tol2bus2.pkt_size_system.cpu08.itb.walker.dma::system.l22.cpu_side       463112                       # Cumulative packet size per connected master and slave (bytes)
system.tol2bus2.pkt_size_system.cpu08.dtb.walker.dma::system.l22.cpu_side       271488                       # Cumulative packet size per connected master and slave (bytes)
system.tol2bus2.pkt_size_system.cpu09.icache.mem_side::system.l22.cpu_side      6923776                       # Cumulative packet size per connected master and slave (bytes)
system.tol2bus2.pkt_size_system.cpu09.dcache.mem_side::system.l22.cpu_side      6395409                       # Cumulative packet size per connected master and slave (bytes)
system.tol2bus2.pkt_size_system.cpu09.itb.walker.dma::system.l22.cpu_side       100944                       # Cumulative packet size per connected master and slave (bytes)
system.tol2bus2.pkt_size_system.cpu09.dtb.walker.dma::system.l22.cpu_side        68640                       # Cumulative packet size per connected master and slave (bytes)
system.tol2bus2.pkt_size_system.cpu10.icache.mem_side::system.l22.cpu_side     16574848                       # Cumulative packet size per connected master and slave (bytes)
system.tol2bus2.pkt_size_system.cpu10.dcache.mem_side::system.l22.cpu_side     17409892                       # Cumulative packet size per connected master and slave (bytes)
system.tol2bus2.pkt_size_system.cpu10.itb.walker.dma::system.l22.cpu_side       269352                       # Cumulative packet size per connected master and slave (bytes)
system.tol2bus2.pkt_size_system.cpu10.dtb.walker.dma::system.l22.cpu_side       298336                       # Cumulative packet size per connected master and slave (bytes)
system.tol2bus2.pkt_size_system.cpu11.icache.mem_side::system.l22.cpu_side     23093632                       # Cumulative packet size per connected master and slave (bytes)
system.tol2bus2.pkt_size_system.cpu11.dcache.mem_side::system.l22.cpu_side     22646260                       # Cumulative packet size per connected master and slave (bytes)
system.tol2bus2.pkt_size_system.cpu11.itb.walker.dma::system.l22.cpu_side       391832                       # Cumulative packet size per connected master and slave (bytes)
system.tol2bus2.pkt_size_system.cpu11.dtb.walker.dma::system.l22.cpu_side       393584                       # Cumulative packet size per connected master and slave (bytes)
system.tol2bus2.pkt_size::total             148249652                       # Cumulative packet size per connected master and slave (bytes)
system.tol2bus2.snoops                         809410                       # Total snoops (count)
system.tol2bus2.snoopTraffic                  6440832                       # Total snoop traffic (bytes)
system.tol2bus2.snoop_fanout::samples         2478307                       # Request fanout histogram
system.tol2bus2.snoop_fanout::mean           0.240212                       # Request fanout histogram
system.tol2bus2.snoop_fanout::stdev          0.676650                       # Request fanout histogram
system.tol2bus2.snoop_fanout::underflows            0      0.00%      0.00% # Request fanout histogram
system.tol2bus2.snoop_fanout::0               2118666     85.49%     85.49% # Request fanout histogram
system.tol2bus2.snoop_fanout::1                209734      8.46%     93.95% # Request fanout histogram
system.tol2bus2.snoop_fanout::2                 83882      3.38%     97.34% # Request fanout histogram
system.tol2bus2.snoop_fanout::3                 46279      1.87%     99.20% # Request fanout histogram
system.tol2bus2.snoop_fanout::4                 19746      0.80%    100.00% # Request fanout histogram
system.tol2bus2.snoop_fanout::5                     0      0.00%    100.00% # Request fanout histogram
system.tol2bus2.snoop_fanout::6                     0      0.00%    100.00% # Request fanout histogram
system.tol2bus2.snoop_fanout::7                     0      0.00%    100.00% # Request fanout histogram
system.tol2bus2.snoop_fanout::8                     0      0.00%    100.00% # Request fanout histogram
system.tol2bus2.snoop_fanout::overflows             0      0.00%    100.00% # Request fanout histogram
system.tol2bus2.snoop_fanout::min_value             0                       # Request fanout histogram
system.tol2bus2.snoop_fanout::max_value             4                       # Request fanout histogram
system.tol2bus2.snoop_fanout::total           2478307                       # Request fanout histogram
system.tol2bus2.directResponses                     0                       # auxiliar stat for checking how reasonable wireless model is
system.tol2bus3.snoop_filter.tot_requests     31851027                       # Total number of requests made to the snoop filter.
system.tol2bus3.snoop_filter.hit_single_requests     14713697                       # Number of requests hitting in the snoop filter with a single holder of the requested data.
system.tol2bus3.snoop_filter.hit_multi_requests      3971119                       # Number of requests hitting in the snoop filter with multiple (>1) holders of the requested data.
system.tol2bus3.snoop_filter.tot_snoops        413119                       # Total number of snoops made to the snoop filter.
system.tol2bus3.snoop_filter.hit_single_snoops       308309                       # Number of snoops hitting in the snoop filter with a single holder of the requested data.
system.tol2bus3.snoop_filter.hit_multi_snoops       104810                       # Number of snoops hitting in the snoop filter with multiple (>1) holders of the requested data.
system.tol2bus3.pwrStateResidencyTicks::UNDEFINED 10921577532491000                       # Cumulative time (in ticks) in various power states
system.tol2bus3.trans_dist::ReadReq           4499586                       # Transaction distribution
system.tol2bus3.trans_dist::ReadResp         19496301                       # Transaction distribution
system.tol2bus3.trans_dist::WriteReq             4333                       # Transaction distribution
system.tol2bus3.trans_dist::WriteResp            4333                       # Transaction distribution
system.tol2bus3.trans_dist::WritebackDirty      2030658                       # Transaction distribution
system.tol2bus3.trans_dist::WritebackClean     11904772                       # Transaction distribution
system.tol2bus3.trans_dist::CleanEvict        1876777                       # Transaction distribution
system.tol2bus3.trans_dist::UpgradeReq          45895                       # Transaction distribution
system.tol2bus3.trans_dist::SCUpgradeReq        43851                       # Transaction distribution
system.tol2bus3.trans_dist::UpgradeResp         89746                       # Transaction distribution
system.tol2bus3.trans_dist::ReadExReq          669505                       # Transaction distribution
system.tol2bus3.trans_dist::ReadExResp         669505                       # Transaction distribution
system.tol2bus3.trans_dist::ReadCleanReq     11906820                       # Transaction distribution
system.tol2bus3.trans_dist::ReadSharedReq      3089895                       # Transaction distribution
system.tol2bus3.trans_dist::InvalidateReq       222910                       # Transaction distribution
system.tol2bus3.trans_dist::InvalidateResp       222910                       # Transaction distribution
system.tol2bus3.pkt_count_system.cpu12.icache.mem_side::system.l23.cpu_side       304960                       # Packet count per connected master and slave (bytes)
system.tol2bus3.pkt_count_system.cpu12.dcache.mem_side::system.l23.cpu_side       416438                       # Packet count per connected master and slave (bytes)
system.tol2bus3.pkt_count_system.cpu12.itb.walker.dma::system.l23.cpu_side        52796                       # Packet count per connected master and slave (bytes)
system.tol2bus3.pkt_count_system.cpu12.dtb.walker.dma::system.l23.cpu_side        54646                       # Packet count per connected master and slave (bytes)
system.tol2bus3.pkt_count_system.cpu13.icache.mem_side::system.l23.cpu_side      4605481                       # Packet count per connected master and slave (bytes)
system.tol2bus3.pkt_count_system.cpu13.dcache.mem_side::system.l23.cpu_side      1830358                       # Packet count per connected master and slave (bytes)
system.tol2bus3.pkt_count_system.cpu13.itb.walker.dma::system.l23.cpu_side       977174                       # Packet count per connected master and slave (bytes)
system.tol2bus3.pkt_count_system.cpu13.dtb.walker.dma::system.l23.cpu_side       525914                       # Packet count per connected master and slave (bytes)
system.tol2bus3.pkt_count_system.cpu14.icache.mem_side::system.l23.cpu_side     29010685                       # Packet count per connected master and slave (bytes)
system.tol2bus3.pkt_count_system.cpu14.dcache.mem_side::system.l23.cpu_side      8121572                       # Packet count per connected master and slave (bytes)
system.tol2bus3.pkt_count_system.cpu14.itb.walker.dma::system.l23.cpu_side      5861540                       # Packet count per connected master and slave (bytes)
system.tol2bus3.pkt_count_system.cpu14.dtb.walker.dma::system.l23.cpu_side       953816                       # Packet count per connected master and slave (bytes)
system.tol2bus3.pkt_count_system.cpu15.icache.mem_side::system.l23.cpu_side      1797286                       # Packet count per connected master and slave (bytes)
system.tol2bus3.pkt_count_system.cpu15.dcache.mem_side::system.l23.cpu_side      1703679                       # Packet count per connected master and slave (bytes)
system.tol2bus3.pkt_count_system.cpu15.itb.walker.dma::system.l23.cpu_side       335248                       # Packet count per connected master and slave (bytes)
system.tol2bus3.pkt_count_system.cpu15.dtb.walker.dma::system.l23.cpu_side       226204                       # Packet count per connected master and slave (bytes)
system.tol2bus3.pkt_count::total             56777797                       # Packet count per connected master and slave (bytes)
system.tol2bus3.pkt_size_system.cpu12.icache.mem_side::system.l23.cpu_side     13000704                       # Cumulative packet size per connected master and slave (bytes)
system.tol2bus3.pkt_size_system.cpu12.dcache.mem_side::system.l23.cpu_side     12559840                       # Cumulative packet size per connected master and slave (bytes)
system.tol2bus3.pkt_size_system.cpu12.itb.walker.dma::system.l23.cpu_side       211184                       # Cumulative packet size per connected master and slave (bytes)
system.tol2bus3.pkt_size_system.cpu12.dtb.walker.dma::system.l23.cpu_side       218584                       # Cumulative packet size per connected master and slave (bytes)
system.tol2bus3.pkt_size_system.cpu13.icache.mem_side::system.l23.cpu_side    196489600                       # Cumulative packet size per connected master and slave (bytes)
system.tol2bus3.pkt_size_system.cpu13.dcache.mem_side::system.l23.cpu_side     53524176                       # Cumulative packet size per connected master and slave (bytes)
system.tol2bus3.pkt_size_system.cpu13.itb.walker.dma::system.l23.cpu_side      3908696                       # Cumulative packet size per connected master and slave (bytes)
system.tol2bus3.pkt_size_system.cpu13.dtb.walker.dma::system.l23.cpu_side      2103656                       # Cumulative packet size per connected master and slave (bytes)
system.tol2bus3.pkt_size_system.cpu14.icache.mem_side::system.l23.cpu_side   1237778304                       # Cumulative packet size per connected master and slave (bytes)
system.tol2bus3.pkt_size_system.cpu14.dcache.mem_side::system.l23.cpu_side    252977560                       # Cumulative packet size per connected master and slave (bytes)
system.tol2bus3.pkt_size_system.cpu14.itb.walker.dma::system.l23.cpu_side     23446160                       # Cumulative packet size per connected master and slave (bytes)
system.tol2bus3.pkt_size_system.cpu14.dtb.walker.dma::system.l23.cpu_side      3815264                       # Cumulative packet size per connected master and slave (bytes)
system.tol2bus3.pkt_size_system.cpu15.icache.mem_side::system.l23.cpu_side     76673280                       # Cumulative packet size per connected master and slave (bytes)
system.tol2bus3.pkt_size_system.cpu15.dcache.mem_side::system.l23.cpu_side     51542932                       # Cumulative packet size per connected master and slave (bytes)
system.tol2bus3.pkt_size_system.cpu15.itb.walker.dma::system.l23.cpu_side      1340992                       # Cumulative packet size per connected master and slave (bytes)
system.tol2bus3.pkt_size_system.cpu15.dtb.walker.dma::system.l23.cpu_side       904816                       # Cumulative packet size per connected master and slave (bytes)
system.tol2bus3.pkt_size::total            1930495748                       # Cumulative packet size per connected master and slave (bytes)
system.tol2bus3.snoops                        1640160                       # Total snoops (count)
system.tol2bus3.snoopTraffic                 16827136                       # Total snoop traffic (bytes)
system.tol2bus3.snoop_fanout::samples        22059472                       # Request fanout histogram
system.tol2bus3.snoop_fanout::mean           0.234322                       # Request fanout histogram
system.tol2bus3.snoop_fanout::stdev          0.640616                       # Request fanout histogram
system.tol2bus3.snoop_fanout::underflows            0      0.00%      0.00% # Request fanout histogram
system.tol2bus3.snoop_fanout::0              18829241     85.36%     85.36% # Request fanout histogram
system.tol2bus3.snoop_fanout::1               1878759      8.52%     93.87% # Request fanout histogram
system.tol2bus3.snoop_fanout::2                785619      3.56%     97.43% # Request fanout histogram
system.tol2bus3.snoop_fanout::3                544388      2.47%     99.90% # Request fanout histogram
system.tol2bus3.snoop_fanout::4                 21465      0.10%    100.00% # Request fanout histogram
system.tol2bus3.snoop_fanout::5                     0      0.00%    100.00% # Request fanout histogram
system.tol2bus3.snoop_fanout::6                     0      0.00%    100.00% # Request fanout histogram
system.tol2bus3.snoop_fanout::7                     0      0.00%    100.00% # Request fanout histogram
system.tol2bus3.snoop_fanout::8                     0      0.00%    100.00% # Request fanout histogram
system.tol2bus3.snoop_fanout::overflows             0      0.00%    100.00% # Request fanout histogram
system.tol2bus3.snoop_fanout::min_value             0                       # Request fanout histogram
system.tol2bus3.snoop_fanout::max_value             4                       # Request fanout histogram
system.tol2bus3.snoop_fanout::total          22059472                       # Request fanout histogram
system.tol2bus3.directResponses                     0                       # auxiliar stat for checking how reasonable wireless model is

---------- End Simulation Statistics   ----------
