
---------- Begin Simulation Statistics ----------
sim_seconds                               8590.906550                       # Number of seconds simulated
sim_ticks                                8590906549813500                       # Number of ticks simulated
final_tick                               15338029604594500                       # Number of ticks from beginning of simulation (restored from checkpoints and never reset)
sim_freq                                 1000000000000                       # Frequency of simulated ticks
host_inst_rate                                2510565                       # Simulator instruction rate (inst/s)
host_op_rate                                  2814031                       # Simulator op (including micro ops) rate (op/s)
host_tick_rate                           1412629951333                       # Simulator tick rate (ticks/s)
host_mem_usage                                5045904                       # Number of bytes of host memory used
host_seconds                                  6081.50                       # Real time elapsed on the host
sim_insts                                 15267996127                       # Number of instructions simulated
sim_ops                                   17113523740                       # Number of ops (including micro ops) simulated
system.voltage_domain.voltage                       1                       # Voltage in Volts
system.clk_domain.clock                           625                       # Clock period in ticks
system.bootmem.pwrStateResidencyTicks::UNDEFINED 15338029604594500                       # Cumulative time (in ticks) in various power states
system.mem_ctrls.pwrStateResidencyTicks::UNDEFINED 15338029604594500                       # Cumulative time (in ticks) in various power states
system.mem_ctrls.bytes_read::cpu00.dtb.walker      1468928                       # Number of bytes read from this memory
system.mem_ctrls.bytes_read::cpu00.itb.walker       174656                       # Number of bytes read from this memory
system.mem_ctrls.bytes_read::cpu00.inst       5529280                       # Number of bytes read from this memory
system.mem_ctrls.bytes_read::cpu00.data     173107456                       # Number of bytes read from this memory
system.mem_ctrls.bytes_read::cpu01.dtb.walker        25984                       # Number of bytes read from this memory
system.mem_ctrls.bytes_read::cpu01.itb.walker        13568                       # Number of bytes read from this memory
system.mem_ctrls.bytes_read::cpu01.inst       1342336                       # Number of bytes read from this memory
system.mem_ctrls.bytes_read::cpu01.data       2913664                       # Number of bytes read from this memory
system.mem_ctrls.bytes_read::cpu02.dtb.walker        51904                       # Number of bytes read from this memory
system.mem_ctrls.bytes_read::cpu02.itb.walker        38976                       # Number of bytes read from this memory
system.mem_ctrls.bytes_read::cpu02.inst       3587328                       # Number of bytes read from this memory
system.mem_ctrls.bytes_read::cpu02.data       7563456                       # Number of bytes read from this memory
system.mem_ctrls.bytes_read::cpu03.dtb.walker       118464                       # Number of bytes read from this memory
system.mem_ctrls.bytes_read::cpu03.itb.walker        41024                       # Number of bytes read from this memory
system.mem_ctrls.bytes_read::cpu03.inst       3395456                       # Number of bytes read from this memory
system.mem_ctrls.bytes_read::cpu03.data      13929856                       # Number of bytes read from this memory
system.mem_ctrls.bytes_read::cpu04.dtb.walker       172928                       # Number of bytes read from this memory
system.mem_ctrls.bytes_read::cpu04.itb.walker        40192                       # Number of bytes read from this memory
system.mem_ctrls.bytes_read::cpu04.inst       6133440                       # Number of bytes read from this memory
system.mem_ctrls.bytes_read::cpu04.data       5017856                       # Number of bytes read from this memory
system.mem_ctrls.bytes_read::cpu05.dtb.walker        35584                       # Number of bytes read from this memory
system.mem_ctrls.bytes_read::cpu05.itb.walker        37824                       # Number of bytes read from this memory
system.mem_ctrls.bytes_read::cpu05.inst       2523520                       # Number of bytes read from this memory
system.mem_ctrls.bytes_read::cpu05.data       5719744                       # Number of bytes read from this memory
system.mem_ctrls.bytes_read::cpu06.dtb.walker        12480                       # Number of bytes read from this memory
system.mem_ctrls.bytes_read::cpu06.itb.walker         8512                       # Number of bytes read from this memory
system.mem_ctrls.bytes_read::cpu06.inst        836288                       # Number of bytes read from this memory
system.mem_ctrls.bytes_read::cpu06.data       1117248                       # Number of bytes read from this memory
system.mem_ctrls.bytes_read::cpu07.dtb.walker        13504                       # Number of bytes read from this memory
system.mem_ctrls.bytes_read::cpu07.itb.walker        15936                       # Number of bytes read from this memory
system.mem_ctrls.bytes_read::cpu07.inst       1148224                       # Number of bytes read from this memory
system.mem_ctrls.bytes_read::cpu07.data       2660608                       # Number of bytes read from this memory
system.mem_ctrls.bytes_read::cpu08.dtb.walker         7296                       # Number of bytes read from this memory
system.mem_ctrls.bytes_read::cpu08.itb.walker         7488                       # Number of bytes read from this memory
system.mem_ctrls.bytes_read::cpu08.inst        780736                       # Number of bytes read from this memory
system.mem_ctrls.bytes_read::cpu08.data        975872                       # Number of bytes read from this memory
system.mem_ctrls.bytes_read::cpu09.dtb.walker        22144                       # Number of bytes read from this memory
system.mem_ctrls.bytes_read::cpu09.itb.walker        18496                       # Number of bytes read from this memory
system.mem_ctrls.bytes_read::cpu09.inst       1718016                       # Number of bytes read from this memory
system.mem_ctrls.bytes_read::cpu09.data       4204544                       # Number of bytes read from this memory
system.mem_ctrls.bytes_read::cpu10.dtb.walker      3394048                       # Number of bytes read from this memory
system.mem_ctrls.bytes_read::cpu10.itb.walker        83648                       # Number of bytes read from this memory
system.mem_ctrls.bytes_read::cpu10.inst       4397312                       # Number of bytes read from this memory
system.mem_ctrls.bytes_read::cpu10.data     172310336                       # Number of bytes read from this memory
system.mem_ctrls.bytes_read::cpu11.dtb.walker        30656                       # Number of bytes read from this memory
system.mem_ctrls.bytes_read::cpu11.itb.walker        23040                       # Number of bytes read from this memory
system.mem_ctrls.bytes_read::cpu11.inst       1713984                       # Number of bytes read from this memory
system.mem_ctrls.bytes_read::cpu11.data       4291456                       # Number of bytes read from this memory
system.mem_ctrls.bytes_read::cpu12.dtb.walker         7808                       # Number of bytes read from this memory
system.mem_ctrls.bytes_read::cpu12.itb.walker         6208                       # Number of bytes read from this memory
system.mem_ctrls.bytes_read::cpu12.inst        699904                       # Number of bytes read from this memory
system.mem_ctrls.bytes_read::cpu12.data        824064                       # Number of bytes read from this memory
system.mem_ctrls.bytes_read::cpu13.dtb.walker        49920                       # Number of bytes read from this memory
system.mem_ctrls.bytes_read::cpu13.itb.walker        22400                       # Number of bytes read from this memory
system.mem_ctrls.bytes_read::cpu13.inst       1625280                       # Number of bytes read from this memory
system.mem_ctrls.bytes_read::cpu13.data       1247360                       # Number of bytes read from this memory
system.mem_ctrls.bytes_read::cpu14.dtb.walker      2069056                       # Number of bytes read from this memory
system.mem_ctrls.bytes_read::cpu14.itb.walker      1597376                       # Number of bytes read from this memory
system.mem_ctrls.bytes_read::cpu14.inst      27586752                       # Number of bytes read from this memory
system.mem_ctrls.bytes_read::cpu14.data      24857600                       # Number of bytes read from this memory
system.mem_ctrls.bytes_read::cpu15.dtb.walker        76736                       # Number of bytes read from this memory
system.mem_ctrls.bytes_read::cpu15.itb.walker        36352                       # Number of bytes read from this memory
system.mem_ctrls.bytes_read::cpu15.inst       3046144                       # Number of bytes read from this memory
system.mem_ctrls.bytes_read::cpu15.data       4140352                       # Number of bytes read from this memory
system.mem_ctrls.bytes_read::total          500668608                       # Number of bytes read from this memory
system.mem_ctrls.bytes_inst_read::cpu00.inst      5529280                       # Number of instructions bytes read from this memory
system.mem_ctrls.bytes_inst_read::cpu01.inst      1342336                       # Number of instructions bytes read from this memory
system.mem_ctrls.bytes_inst_read::cpu02.inst      3587328                       # Number of instructions bytes read from this memory
system.mem_ctrls.bytes_inst_read::cpu03.inst      3395456                       # Number of instructions bytes read from this memory
system.mem_ctrls.bytes_inst_read::cpu04.inst      6133440                       # Number of instructions bytes read from this memory
system.mem_ctrls.bytes_inst_read::cpu05.inst      2523520                       # Number of instructions bytes read from this memory
system.mem_ctrls.bytes_inst_read::cpu06.inst       836288                       # Number of instructions bytes read from this memory
system.mem_ctrls.bytes_inst_read::cpu07.inst      1148224                       # Number of instructions bytes read from this memory
system.mem_ctrls.bytes_inst_read::cpu08.inst       780736                       # Number of instructions bytes read from this memory
system.mem_ctrls.bytes_inst_read::cpu09.inst      1718016                       # Number of instructions bytes read from this memory
system.mem_ctrls.bytes_inst_read::cpu10.inst      4397312                       # Number of instructions bytes read from this memory
system.mem_ctrls.bytes_inst_read::cpu11.inst      1713984                       # Number of instructions bytes read from this memory
system.mem_ctrls.bytes_inst_read::cpu12.inst       699904                       # Number of instructions bytes read from this memory
system.mem_ctrls.bytes_inst_read::cpu13.inst      1625280                       # Number of instructions bytes read from this memory
system.mem_ctrls.bytes_inst_read::cpu14.inst     27586752                       # Number of instructions bytes read from this memory
system.mem_ctrls.bytes_inst_read::cpu15.inst      3046144                       # Number of instructions bytes read from this memory
system.mem_ctrls.bytes_inst_read::total      66064000                       # Number of instructions bytes read from this memory
system.mem_ctrls.bytes_written::writebacks    189042368                       # Number of bytes written to this memory
system.mem_ctrls.bytes_written::total       189042368                       # Number of bytes written to this memory
system.mem_ctrls.num_reads::cpu00.dtb.walker        22952                       # Number of read requests responded to by this memory
system.mem_ctrls.num_reads::cpu00.itb.walker         2729                       # Number of read requests responded to by this memory
system.mem_ctrls.num_reads::cpu00.inst          86395                       # Number of read requests responded to by this memory
system.mem_ctrls.num_reads::cpu00.data        2704804                       # Number of read requests responded to by this memory
system.mem_ctrls.num_reads::cpu01.dtb.walker          406                       # Number of read requests responded to by this memory
system.mem_ctrls.num_reads::cpu01.itb.walker          212                       # Number of read requests responded to by this memory
system.mem_ctrls.num_reads::cpu01.inst          20974                       # Number of read requests responded to by this memory
system.mem_ctrls.num_reads::cpu01.data          45526                       # Number of read requests responded to by this memory
system.mem_ctrls.num_reads::cpu02.dtb.walker          811                       # Number of read requests responded to by this memory
system.mem_ctrls.num_reads::cpu02.itb.walker          609                       # Number of read requests responded to by this memory
system.mem_ctrls.num_reads::cpu02.inst          56052                       # Number of read requests responded to by this memory
system.mem_ctrls.num_reads::cpu02.data         118179                       # Number of read requests responded to by this memory
system.mem_ctrls.num_reads::cpu03.dtb.walker         1851                       # Number of read requests responded to by this memory
system.mem_ctrls.num_reads::cpu03.itb.walker          641                       # Number of read requests responded to by this memory
system.mem_ctrls.num_reads::cpu03.inst          53054                       # Number of read requests responded to by this memory
system.mem_ctrls.num_reads::cpu03.data         217654                       # Number of read requests responded to by this memory
system.mem_ctrls.num_reads::cpu04.dtb.walker         2702                       # Number of read requests responded to by this memory
system.mem_ctrls.num_reads::cpu04.itb.walker          628                       # Number of read requests responded to by this memory
system.mem_ctrls.num_reads::cpu04.inst          95835                       # Number of read requests responded to by this memory
system.mem_ctrls.num_reads::cpu04.data          78404                       # Number of read requests responded to by this memory
system.mem_ctrls.num_reads::cpu05.dtb.walker          556                       # Number of read requests responded to by this memory
system.mem_ctrls.num_reads::cpu05.itb.walker          591                       # Number of read requests responded to by this memory
system.mem_ctrls.num_reads::cpu05.inst          39430                       # Number of read requests responded to by this memory
system.mem_ctrls.num_reads::cpu05.data          89371                       # Number of read requests responded to by this memory
system.mem_ctrls.num_reads::cpu06.dtb.walker          195                       # Number of read requests responded to by this memory
system.mem_ctrls.num_reads::cpu06.itb.walker          133                       # Number of read requests responded to by this memory
system.mem_ctrls.num_reads::cpu06.inst          13067                       # Number of read requests responded to by this memory
system.mem_ctrls.num_reads::cpu06.data          17457                       # Number of read requests responded to by this memory
system.mem_ctrls.num_reads::cpu07.dtb.walker          211                       # Number of read requests responded to by this memory
system.mem_ctrls.num_reads::cpu07.itb.walker          249                       # Number of read requests responded to by this memory
system.mem_ctrls.num_reads::cpu07.inst          17941                       # Number of read requests responded to by this memory
system.mem_ctrls.num_reads::cpu07.data          41572                       # Number of read requests responded to by this memory
system.mem_ctrls.num_reads::cpu08.dtb.walker          114                       # Number of read requests responded to by this memory
system.mem_ctrls.num_reads::cpu08.itb.walker          117                       # Number of read requests responded to by this memory
system.mem_ctrls.num_reads::cpu08.inst          12199                       # Number of read requests responded to by this memory
system.mem_ctrls.num_reads::cpu08.data          15248                       # Number of read requests responded to by this memory
system.mem_ctrls.num_reads::cpu09.dtb.walker          346                       # Number of read requests responded to by this memory
system.mem_ctrls.num_reads::cpu09.itb.walker          289                       # Number of read requests responded to by this memory
system.mem_ctrls.num_reads::cpu09.inst          26844                       # Number of read requests responded to by this memory
system.mem_ctrls.num_reads::cpu09.data          65696                       # Number of read requests responded to by this memory
system.mem_ctrls.num_reads::cpu10.dtb.walker        53032                       # Number of read requests responded to by this memory
system.mem_ctrls.num_reads::cpu10.itb.walker         1307                       # Number of read requests responded to by this memory
system.mem_ctrls.num_reads::cpu10.inst          68708                       # Number of read requests responded to by this memory
system.mem_ctrls.num_reads::cpu10.data        2692349                       # Number of read requests responded to by this memory
system.mem_ctrls.num_reads::cpu11.dtb.walker          479                       # Number of read requests responded to by this memory
system.mem_ctrls.num_reads::cpu11.itb.walker          360                       # Number of read requests responded to by this memory
system.mem_ctrls.num_reads::cpu11.inst          26781                       # Number of read requests responded to by this memory
system.mem_ctrls.num_reads::cpu11.data          67054                       # Number of read requests responded to by this memory
system.mem_ctrls.num_reads::cpu12.dtb.walker          122                       # Number of read requests responded to by this memory
system.mem_ctrls.num_reads::cpu12.itb.walker           97                       # Number of read requests responded to by this memory
system.mem_ctrls.num_reads::cpu12.inst          10936                       # Number of read requests responded to by this memory
system.mem_ctrls.num_reads::cpu12.data          12876                       # Number of read requests responded to by this memory
system.mem_ctrls.num_reads::cpu13.dtb.walker          780                       # Number of read requests responded to by this memory
system.mem_ctrls.num_reads::cpu13.itb.walker          350                       # Number of read requests responded to by this memory
system.mem_ctrls.num_reads::cpu13.inst          25395                       # Number of read requests responded to by this memory
system.mem_ctrls.num_reads::cpu13.data          19490                       # Number of read requests responded to by this memory
system.mem_ctrls.num_reads::cpu14.dtb.walker        32329                       # Number of read requests responded to by this memory
system.mem_ctrls.num_reads::cpu14.itb.walker        24959                       # Number of read requests responded to by this memory
system.mem_ctrls.num_reads::cpu14.inst         431043                       # Number of read requests responded to by this memory
system.mem_ctrls.num_reads::cpu14.data         388400                       # Number of read requests responded to by this memory
system.mem_ctrls.num_reads::cpu15.dtb.walker         1199                       # Number of read requests responded to by this memory
system.mem_ctrls.num_reads::cpu15.itb.walker          568                       # Number of read requests responded to by this memory
system.mem_ctrls.num_reads::cpu15.inst          47596                       # Number of read requests responded to by this memory
system.mem_ctrls.num_reads::cpu15.data          64693                       # Number of read requests responded to by this memory
system.mem_ctrls.num_reads::total             7822947                       # Number of read requests responded to by this memory
system.mem_ctrls.num_writes::writebacks       2953787                       # Number of write requests responded to by this memory
system.mem_ctrls.num_writes::total            2953787                       # Number of write requests responded to by this memory
system.mem_ctrls.bw_read::cpu00.dtb.walker          171                       # Total read bandwidth from this memory (bytes/s)
system.mem_ctrls.bw_read::cpu00.itb.walker           20                       # Total read bandwidth from this memory (bytes/s)
system.mem_ctrls.bw_read::cpu00.inst              644                       # Total read bandwidth from this memory (bytes/s)
system.mem_ctrls.bw_read::cpu00.data            20150                       # Total read bandwidth from this memory (bytes/s)
system.mem_ctrls.bw_read::cpu01.dtb.walker            3                       # Total read bandwidth from this memory (bytes/s)
system.mem_ctrls.bw_read::cpu01.itb.walker            2                       # Total read bandwidth from this memory (bytes/s)
system.mem_ctrls.bw_read::cpu01.inst              156                       # Total read bandwidth from this memory (bytes/s)
system.mem_ctrls.bw_read::cpu01.data              339                       # Total read bandwidth from this memory (bytes/s)
system.mem_ctrls.bw_read::cpu02.dtb.walker            6                       # Total read bandwidth from this memory (bytes/s)
system.mem_ctrls.bw_read::cpu02.itb.walker            5                       # Total read bandwidth from this memory (bytes/s)
system.mem_ctrls.bw_read::cpu02.inst              418                       # Total read bandwidth from this memory (bytes/s)
system.mem_ctrls.bw_read::cpu02.data              880                       # Total read bandwidth from this memory (bytes/s)
system.mem_ctrls.bw_read::cpu03.dtb.walker           14                       # Total read bandwidth from this memory (bytes/s)
system.mem_ctrls.bw_read::cpu03.itb.walker            5                       # Total read bandwidth from this memory (bytes/s)
system.mem_ctrls.bw_read::cpu03.inst              395                       # Total read bandwidth from this memory (bytes/s)
system.mem_ctrls.bw_read::cpu03.data             1621                       # Total read bandwidth from this memory (bytes/s)
system.mem_ctrls.bw_read::cpu04.dtb.walker           20                       # Total read bandwidth from this memory (bytes/s)
system.mem_ctrls.bw_read::cpu04.itb.walker            5                       # Total read bandwidth from this memory (bytes/s)
system.mem_ctrls.bw_read::cpu04.inst              714                       # Total read bandwidth from this memory (bytes/s)
system.mem_ctrls.bw_read::cpu04.data              584                       # Total read bandwidth from this memory (bytes/s)
system.mem_ctrls.bw_read::cpu05.dtb.walker            4                       # Total read bandwidth from this memory (bytes/s)
system.mem_ctrls.bw_read::cpu05.itb.walker            4                       # Total read bandwidth from this memory (bytes/s)
system.mem_ctrls.bw_read::cpu05.inst              294                       # Total read bandwidth from this memory (bytes/s)
system.mem_ctrls.bw_read::cpu05.data              666                       # Total read bandwidth from this memory (bytes/s)
system.mem_ctrls.bw_read::cpu06.dtb.walker            1                       # Total read bandwidth from this memory (bytes/s)
system.mem_ctrls.bw_read::cpu06.itb.walker            1                       # Total read bandwidth from this memory (bytes/s)
system.mem_ctrls.bw_read::cpu06.inst               97                       # Total read bandwidth from this memory (bytes/s)
system.mem_ctrls.bw_read::cpu06.data              130                       # Total read bandwidth from this memory (bytes/s)
system.mem_ctrls.bw_read::cpu07.dtb.walker            2                       # Total read bandwidth from this memory (bytes/s)
system.mem_ctrls.bw_read::cpu07.itb.walker            2                       # Total read bandwidth from this memory (bytes/s)
system.mem_ctrls.bw_read::cpu07.inst              134                       # Total read bandwidth from this memory (bytes/s)
system.mem_ctrls.bw_read::cpu07.data              310                       # Total read bandwidth from this memory (bytes/s)
system.mem_ctrls.bw_read::cpu08.dtb.walker            1                       # Total read bandwidth from this memory (bytes/s)
system.mem_ctrls.bw_read::cpu08.itb.walker            1                       # Total read bandwidth from this memory (bytes/s)
system.mem_ctrls.bw_read::cpu08.inst               91                       # Total read bandwidth from this memory (bytes/s)
system.mem_ctrls.bw_read::cpu08.data              114                       # Total read bandwidth from this memory (bytes/s)
system.mem_ctrls.bw_read::cpu09.dtb.walker            3                       # Total read bandwidth from this memory (bytes/s)
system.mem_ctrls.bw_read::cpu09.itb.walker            2                       # Total read bandwidth from this memory (bytes/s)
system.mem_ctrls.bw_read::cpu09.inst              200                       # Total read bandwidth from this memory (bytes/s)
system.mem_ctrls.bw_read::cpu09.data              489                       # Total read bandwidth from this memory (bytes/s)
system.mem_ctrls.bw_read::cpu10.dtb.walker          395                       # Total read bandwidth from this memory (bytes/s)
system.mem_ctrls.bw_read::cpu10.itb.walker           10                       # Total read bandwidth from this memory (bytes/s)
system.mem_ctrls.bw_read::cpu10.inst              512                       # Total read bandwidth from this memory (bytes/s)
system.mem_ctrls.bw_read::cpu10.data            20057                       # Total read bandwidth from this memory (bytes/s)
system.mem_ctrls.bw_read::cpu11.dtb.walker            4                       # Total read bandwidth from this memory (bytes/s)
system.mem_ctrls.bw_read::cpu11.itb.walker            3                       # Total read bandwidth from this memory (bytes/s)
system.mem_ctrls.bw_read::cpu11.inst              200                       # Total read bandwidth from this memory (bytes/s)
system.mem_ctrls.bw_read::cpu11.data              500                       # Total read bandwidth from this memory (bytes/s)
system.mem_ctrls.bw_read::cpu12.dtb.walker            1                       # Total read bandwidth from this memory (bytes/s)
system.mem_ctrls.bw_read::cpu12.itb.walker            1                       # Total read bandwidth from this memory (bytes/s)
system.mem_ctrls.bw_read::cpu12.inst               81                       # Total read bandwidth from this memory (bytes/s)
system.mem_ctrls.bw_read::cpu12.data               96                       # Total read bandwidth from this memory (bytes/s)
system.mem_ctrls.bw_read::cpu13.dtb.walker            6                       # Total read bandwidth from this memory (bytes/s)
system.mem_ctrls.bw_read::cpu13.itb.walker            3                       # Total read bandwidth from this memory (bytes/s)
system.mem_ctrls.bw_read::cpu13.inst              189                       # Total read bandwidth from this memory (bytes/s)
system.mem_ctrls.bw_read::cpu13.data              145                       # Total read bandwidth from this memory (bytes/s)
system.mem_ctrls.bw_read::cpu14.dtb.walker          241                       # Total read bandwidth from this memory (bytes/s)
system.mem_ctrls.bw_read::cpu14.itb.walker          186                       # Total read bandwidth from this memory (bytes/s)
system.mem_ctrls.bw_read::cpu14.inst             3211                       # Total read bandwidth from this memory (bytes/s)
system.mem_ctrls.bw_read::cpu14.data             2893                       # Total read bandwidth from this memory (bytes/s)
system.mem_ctrls.bw_read::cpu15.dtb.walker            9                       # Total read bandwidth from this memory (bytes/s)
system.mem_ctrls.bw_read::cpu15.itb.walker            4                       # Total read bandwidth from this memory (bytes/s)
system.mem_ctrls.bw_read::cpu15.inst              355                       # Total read bandwidth from this memory (bytes/s)
system.mem_ctrls.bw_read::cpu15.data              482                       # Total read bandwidth from this memory (bytes/s)
system.mem_ctrls.bw_read::total                 58279                       # Total read bandwidth from this memory (bytes/s)
system.mem_ctrls.bw_inst_read::cpu00.inst          644                       # Instruction read bandwidth from this memory (bytes/s)
system.mem_ctrls.bw_inst_read::cpu01.inst          156                       # Instruction read bandwidth from this memory (bytes/s)
system.mem_ctrls.bw_inst_read::cpu02.inst          418                       # Instruction read bandwidth from this memory (bytes/s)
system.mem_ctrls.bw_inst_read::cpu03.inst          395                       # Instruction read bandwidth from this memory (bytes/s)
system.mem_ctrls.bw_inst_read::cpu04.inst          714                       # Instruction read bandwidth from this memory (bytes/s)
system.mem_ctrls.bw_inst_read::cpu05.inst          294                       # Instruction read bandwidth from this memory (bytes/s)
system.mem_ctrls.bw_inst_read::cpu06.inst           97                       # Instruction read bandwidth from this memory (bytes/s)
system.mem_ctrls.bw_inst_read::cpu07.inst          134                       # Instruction read bandwidth from this memory (bytes/s)
system.mem_ctrls.bw_inst_read::cpu08.inst           91                       # Instruction read bandwidth from this memory (bytes/s)
system.mem_ctrls.bw_inst_read::cpu09.inst          200                       # Instruction read bandwidth from this memory (bytes/s)
system.mem_ctrls.bw_inst_read::cpu10.inst          512                       # Instruction read bandwidth from this memory (bytes/s)
system.mem_ctrls.bw_inst_read::cpu11.inst          200                       # Instruction read bandwidth from this memory (bytes/s)
system.mem_ctrls.bw_inst_read::cpu12.inst           81                       # Instruction read bandwidth from this memory (bytes/s)
system.mem_ctrls.bw_inst_read::cpu13.inst          189                       # Instruction read bandwidth from this memory (bytes/s)
system.mem_ctrls.bw_inst_read::cpu14.inst         3211                       # Instruction read bandwidth from this memory (bytes/s)
system.mem_ctrls.bw_inst_read::cpu15.inst          355                       # Instruction read bandwidth from this memory (bytes/s)
system.mem_ctrls.bw_inst_read::total             7690                       # Instruction read bandwidth from this memory (bytes/s)
system.mem_ctrls.bw_write::writebacks           22005                       # Write bandwidth from this memory (bytes/s)
system.mem_ctrls.bw_write::total                22005                       # Write bandwidth from this memory (bytes/s)
system.mem_ctrls.bw_total::writebacks           22005                       # Total bandwidth to/from this memory (bytes/s)
system.mem_ctrls.bw_total::cpu00.dtb.walker          171                       # Total bandwidth to/from this memory (bytes/s)
system.mem_ctrls.bw_total::cpu00.itb.walker           20                       # Total bandwidth to/from this memory (bytes/s)
system.mem_ctrls.bw_total::cpu00.inst             644                       # Total bandwidth to/from this memory (bytes/s)
system.mem_ctrls.bw_total::cpu00.data           20150                       # Total bandwidth to/from this memory (bytes/s)
system.mem_ctrls.bw_total::cpu01.dtb.walker            3                       # Total bandwidth to/from this memory (bytes/s)
system.mem_ctrls.bw_total::cpu01.itb.walker            2                       # Total bandwidth to/from this memory (bytes/s)
system.mem_ctrls.bw_total::cpu01.inst             156                       # Total bandwidth to/from this memory (bytes/s)
system.mem_ctrls.bw_total::cpu01.data             339                       # Total bandwidth to/from this memory (bytes/s)
system.mem_ctrls.bw_total::cpu02.dtb.walker            6                       # Total bandwidth to/from this memory (bytes/s)
system.mem_ctrls.bw_total::cpu02.itb.walker            5                       # Total bandwidth to/from this memory (bytes/s)
system.mem_ctrls.bw_total::cpu02.inst             418                       # Total bandwidth to/from this memory (bytes/s)
system.mem_ctrls.bw_total::cpu02.data             880                       # Total bandwidth to/from this memory (bytes/s)
system.mem_ctrls.bw_total::cpu03.dtb.walker           14                       # Total bandwidth to/from this memory (bytes/s)
system.mem_ctrls.bw_total::cpu03.itb.walker            5                       # Total bandwidth to/from this memory (bytes/s)
system.mem_ctrls.bw_total::cpu03.inst             395                       # Total bandwidth to/from this memory (bytes/s)
system.mem_ctrls.bw_total::cpu03.data            1621                       # Total bandwidth to/from this memory (bytes/s)
system.mem_ctrls.bw_total::cpu04.dtb.walker           20                       # Total bandwidth to/from this memory (bytes/s)
system.mem_ctrls.bw_total::cpu04.itb.walker            5                       # Total bandwidth to/from this memory (bytes/s)
system.mem_ctrls.bw_total::cpu04.inst             714                       # Total bandwidth to/from this memory (bytes/s)
system.mem_ctrls.bw_total::cpu04.data             584                       # Total bandwidth to/from this memory (bytes/s)
system.mem_ctrls.bw_total::cpu05.dtb.walker            4                       # Total bandwidth to/from this memory (bytes/s)
system.mem_ctrls.bw_total::cpu05.itb.walker            4                       # Total bandwidth to/from this memory (bytes/s)
system.mem_ctrls.bw_total::cpu05.inst             294                       # Total bandwidth to/from this memory (bytes/s)
system.mem_ctrls.bw_total::cpu05.data             666                       # Total bandwidth to/from this memory (bytes/s)
system.mem_ctrls.bw_total::cpu06.dtb.walker            1                       # Total bandwidth to/from this memory (bytes/s)
system.mem_ctrls.bw_total::cpu06.itb.walker            1                       # Total bandwidth to/from this memory (bytes/s)
system.mem_ctrls.bw_total::cpu06.inst              97                       # Total bandwidth to/from this memory (bytes/s)
system.mem_ctrls.bw_total::cpu06.data             130                       # Total bandwidth to/from this memory (bytes/s)
system.mem_ctrls.bw_total::cpu07.dtb.walker            2                       # Total bandwidth to/from this memory (bytes/s)
system.mem_ctrls.bw_total::cpu07.itb.walker            2                       # Total bandwidth to/from this memory (bytes/s)
system.mem_ctrls.bw_total::cpu07.inst             134                       # Total bandwidth to/from this memory (bytes/s)
system.mem_ctrls.bw_total::cpu07.data             310                       # Total bandwidth to/from this memory (bytes/s)
system.mem_ctrls.bw_total::cpu08.dtb.walker            1                       # Total bandwidth to/from this memory (bytes/s)
system.mem_ctrls.bw_total::cpu08.itb.walker            1                       # Total bandwidth to/from this memory (bytes/s)
system.mem_ctrls.bw_total::cpu08.inst              91                       # Total bandwidth to/from this memory (bytes/s)
system.mem_ctrls.bw_total::cpu08.data             114                       # Total bandwidth to/from this memory (bytes/s)
system.mem_ctrls.bw_total::cpu09.dtb.walker            3                       # Total bandwidth to/from this memory (bytes/s)
system.mem_ctrls.bw_total::cpu09.itb.walker            2                       # Total bandwidth to/from this memory (bytes/s)
system.mem_ctrls.bw_total::cpu09.inst             200                       # Total bandwidth to/from this memory (bytes/s)
system.mem_ctrls.bw_total::cpu09.data             489                       # Total bandwidth to/from this memory (bytes/s)
system.mem_ctrls.bw_total::cpu10.dtb.walker          395                       # Total bandwidth to/from this memory (bytes/s)
system.mem_ctrls.bw_total::cpu10.itb.walker           10                       # Total bandwidth to/from this memory (bytes/s)
system.mem_ctrls.bw_total::cpu10.inst             512                       # Total bandwidth to/from this memory (bytes/s)
system.mem_ctrls.bw_total::cpu10.data           20057                       # Total bandwidth to/from this memory (bytes/s)
system.mem_ctrls.bw_total::cpu11.dtb.walker            4                       # Total bandwidth to/from this memory (bytes/s)
system.mem_ctrls.bw_total::cpu11.itb.walker            3                       # Total bandwidth to/from this memory (bytes/s)
system.mem_ctrls.bw_total::cpu11.inst             200                       # Total bandwidth to/from this memory (bytes/s)
system.mem_ctrls.bw_total::cpu11.data             500                       # Total bandwidth to/from this memory (bytes/s)
system.mem_ctrls.bw_total::cpu12.dtb.walker            1                       # Total bandwidth to/from this memory (bytes/s)
system.mem_ctrls.bw_total::cpu12.itb.walker            1                       # Total bandwidth to/from this memory (bytes/s)
system.mem_ctrls.bw_total::cpu12.inst              81                       # Total bandwidth to/from this memory (bytes/s)
system.mem_ctrls.bw_total::cpu12.data              96                       # Total bandwidth to/from this memory (bytes/s)
system.mem_ctrls.bw_total::cpu13.dtb.walker            6                       # Total bandwidth to/from this memory (bytes/s)
system.mem_ctrls.bw_total::cpu13.itb.walker            3                       # Total bandwidth to/from this memory (bytes/s)
system.mem_ctrls.bw_total::cpu13.inst             189                       # Total bandwidth to/from this memory (bytes/s)
system.mem_ctrls.bw_total::cpu13.data             145                       # Total bandwidth to/from this memory (bytes/s)
system.mem_ctrls.bw_total::cpu14.dtb.walker          241                       # Total bandwidth to/from this memory (bytes/s)
system.mem_ctrls.bw_total::cpu14.itb.walker          186                       # Total bandwidth to/from this memory (bytes/s)
system.mem_ctrls.bw_total::cpu14.inst            3211                       # Total bandwidth to/from this memory (bytes/s)
system.mem_ctrls.bw_total::cpu14.data            2893                       # Total bandwidth to/from this memory (bytes/s)
system.mem_ctrls.bw_total::cpu15.dtb.walker            9                       # Total bandwidth to/from this memory (bytes/s)
system.mem_ctrls.bw_total::cpu15.itb.walker            4                       # Total bandwidth to/from this memory (bytes/s)
system.mem_ctrls.bw_total::cpu15.inst             355                       # Total bandwidth to/from this memory (bytes/s)
system.mem_ctrls.bw_total::cpu15.data             482                       # Total bandwidth to/from this memory (bytes/s)
system.mem_ctrls.bw_total::total                80284                       # Total bandwidth to/from this memory (bytes/s)
system.mem_ctrls.readReqs                           0                       # Number of read requests accepted
system.mem_ctrls.writeReqs                          0                       # Number of write requests accepted
system.mem_ctrls.readBursts                         0                       # Number of DRAM read bursts, including those serviced by the write queue
system.mem_ctrls.writeBursts                        0                       # Number of DRAM write bursts, including those merged in the write queue
system.mem_ctrls.bytesReadDRAM                      0                       # Total number of bytes read from DRAM
system.mem_ctrls.bytesReadWrQ                       0                       # Total number of bytes read from write queue
system.mem_ctrls.bytesWritten                       0                       # Total number of bytes written to DRAM
system.mem_ctrls.bytesReadSys                       0                       # Total read bytes from the system interface side
system.mem_ctrls.bytesWrittenSys                    0                       # Total written bytes from the system interface side
system.mem_ctrls.servicedByWrQ                      0                       # Number of DRAM read bursts serviced by the write queue
system.mem_ctrls.mergedWrBursts                     0                       # Number of DRAM write bursts merged with an existing one
system.mem_ctrls.neitherReadNorWriteReqs            0                       # Number of requests that are neither read nor write
system.mem_ctrls.perBankRdBursts::0                 0                       # Per bank write bursts
system.mem_ctrls.perBankRdBursts::1                 0                       # Per bank write bursts
system.mem_ctrls.perBankRdBursts::2                 0                       # Per bank write bursts
system.mem_ctrls.perBankRdBursts::3                 0                       # Per bank write bursts
system.mem_ctrls.perBankRdBursts::4                 0                       # Per bank write bursts
system.mem_ctrls.perBankRdBursts::5                 0                       # Per bank write bursts
system.mem_ctrls.perBankRdBursts::6                 0                       # Per bank write bursts
system.mem_ctrls.perBankRdBursts::7                 0                       # Per bank write bursts
system.mem_ctrls.perBankRdBursts::8                 0                       # Per bank write bursts
system.mem_ctrls.perBankRdBursts::9                 0                       # Per bank write bursts
system.mem_ctrls.perBankRdBursts::10                0                       # Per bank write bursts
system.mem_ctrls.perBankRdBursts::11                0                       # Per bank write bursts
system.mem_ctrls.perBankRdBursts::12                0                       # Per bank write bursts
system.mem_ctrls.perBankRdBursts::13                0                       # Per bank write bursts
system.mem_ctrls.perBankRdBursts::14                0                       # Per bank write bursts
system.mem_ctrls.perBankRdBursts::15                0                       # Per bank write bursts
system.mem_ctrls.perBankRdBursts::16                0                       # Per bank write bursts
system.mem_ctrls.perBankRdBursts::17                0                       # Per bank write bursts
system.mem_ctrls.perBankRdBursts::18                0                       # Per bank write bursts
system.mem_ctrls.perBankRdBursts::19                0                       # Per bank write bursts
system.mem_ctrls.perBankRdBursts::20                0                       # Per bank write bursts
system.mem_ctrls.perBankRdBursts::21                0                       # Per bank write bursts
system.mem_ctrls.perBankRdBursts::22                0                       # Per bank write bursts
system.mem_ctrls.perBankRdBursts::23                0                       # Per bank write bursts
system.mem_ctrls.perBankRdBursts::24                0                       # Per bank write bursts
system.mem_ctrls.perBankRdBursts::25                0                       # Per bank write bursts
system.mem_ctrls.perBankRdBursts::26                0                       # Per bank write bursts
system.mem_ctrls.perBankRdBursts::27                0                       # Per bank write bursts
system.mem_ctrls.perBankRdBursts::28                0                       # Per bank write bursts
system.mem_ctrls.perBankRdBursts::29                0                       # Per bank write bursts
system.mem_ctrls.perBankRdBursts::30                0                       # Per bank write bursts
system.mem_ctrls.perBankRdBursts::31                0                       # Per bank write bursts
system.mem_ctrls.perBankWrBursts::0                 0                       # Per bank write bursts
system.mem_ctrls.perBankWrBursts::1                 0                       # Per bank write bursts
system.mem_ctrls.perBankWrBursts::2                 0                       # Per bank write bursts
system.mem_ctrls.perBankWrBursts::3                 0                       # Per bank write bursts
system.mem_ctrls.perBankWrBursts::4                 0                       # Per bank write bursts
system.mem_ctrls.perBankWrBursts::5                 0                       # Per bank write bursts
system.mem_ctrls.perBankWrBursts::6                 0                       # Per bank write bursts
system.mem_ctrls.perBankWrBursts::7                 0                       # Per bank write bursts
system.mem_ctrls.perBankWrBursts::8                 0                       # Per bank write bursts
system.mem_ctrls.perBankWrBursts::9                 0                       # Per bank write bursts
system.mem_ctrls.perBankWrBursts::10                0                       # Per bank write bursts
system.mem_ctrls.perBankWrBursts::11                0                       # Per bank write bursts
system.mem_ctrls.perBankWrBursts::12                0                       # Per bank write bursts
system.mem_ctrls.perBankWrBursts::13                0                       # Per bank write bursts
system.mem_ctrls.perBankWrBursts::14                0                       # Per bank write bursts
system.mem_ctrls.perBankWrBursts::15                0                       # Per bank write bursts
system.mem_ctrls.perBankWrBursts::16                0                       # Per bank write bursts
system.mem_ctrls.perBankWrBursts::17                0                       # Per bank write bursts
system.mem_ctrls.perBankWrBursts::18                0                       # Per bank write bursts
system.mem_ctrls.perBankWrBursts::19                0                       # Per bank write bursts
system.mem_ctrls.perBankWrBursts::20                0                       # Per bank write bursts
system.mem_ctrls.perBankWrBursts::21                0                       # Per bank write bursts
system.mem_ctrls.perBankWrBursts::22                0                       # Per bank write bursts
system.mem_ctrls.perBankWrBursts::23                0                       # Per bank write bursts
system.mem_ctrls.perBankWrBursts::24                0                       # Per bank write bursts
system.mem_ctrls.perBankWrBursts::25                0                       # Per bank write bursts
system.mem_ctrls.perBankWrBursts::26                0                       # Per bank write bursts
system.mem_ctrls.perBankWrBursts::27                0                       # Per bank write bursts
system.mem_ctrls.perBankWrBursts::28                0                       # Per bank write bursts
system.mem_ctrls.perBankWrBursts::29                0                       # Per bank write bursts
system.mem_ctrls.perBankWrBursts::30                0                       # Per bank write bursts
system.mem_ctrls.perBankWrBursts::31                0                       # Per bank write bursts
system.mem_ctrls.numRdRetry                         0                       # Number of times read queue was full causing retry
system.mem_ctrls.numWrRetry                         0                       # Number of times write queue was full causing retry
system.mem_ctrls.totGap                             0                       # Total gap between requests
system.mem_ctrls.readPktSize::0                     0                       # Read request sizes (log2)
system.mem_ctrls.readPktSize::1                     0                       # Read request sizes (log2)
system.mem_ctrls.readPktSize::2                     0                       # Read request sizes (log2)
system.mem_ctrls.readPktSize::3                     0                       # Read request sizes (log2)
system.mem_ctrls.readPktSize::4                     0                       # Read request sizes (log2)
system.mem_ctrls.readPktSize::5                     0                       # Read request sizes (log2)
system.mem_ctrls.readPktSize::6                     0                       # Read request sizes (log2)
system.mem_ctrls.writePktSize::0                    0                       # Write request sizes (log2)
system.mem_ctrls.writePktSize::1                    0                       # Write request sizes (log2)
system.mem_ctrls.writePktSize::2                    0                       # Write request sizes (log2)
system.mem_ctrls.writePktSize::3                    0                       # Write request sizes (log2)
system.mem_ctrls.writePktSize::4                    0                       # Write request sizes (log2)
system.mem_ctrls.writePktSize::5                    0                       # Write request sizes (log2)
system.mem_ctrls.writePktSize::6                    0                       # Write request sizes (log2)
system.mem_ctrls.rdQLenPdf::0                       0                       # What read queue length does an incoming req see
system.mem_ctrls.rdQLenPdf::1                       0                       # What read queue length does an incoming req see
system.mem_ctrls.rdQLenPdf::2                       0                       # What read queue length does an incoming req see
system.mem_ctrls.rdQLenPdf::3                       0                       # What read queue length does an incoming req see
system.mem_ctrls.rdQLenPdf::4                       0                       # What read queue length does an incoming req see
system.mem_ctrls.rdQLenPdf::5                       0                       # What read queue length does an incoming req see
system.mem_ctrls.rdQLenPdf::6                       0                       # What read queue length does an incoming req see
system.mem_ctrls.rdQLenPdf::7                       0                       # What read queue length does an incoming req see
system.mem_ctrls.rdQLenPdf::8                       0                       # What read queue length does an incoming req see
system.mem_ctrls.rdQLenPdf::9                       0                       # What read queue length does an incoming req see
system.mem_ctrls.rdQLenPdf::10                      0                       # What read queue length does an incoming req see
system.mem_ctrls.rdQLenPdf::11                      0                       # What read queue length does an incoming req see
system.mem_ctrls.rdQLenPdf::12                      0                       # What read queue length does an incoming req see
system.mem_ctrls.rdQLenPdf::13                      0                       # What read queue length does an incoming req see
system.mem_ctrls.rdQLenPdf::14                      0                       # What read queue length does an incoming req see
system.mem_ctrls.rdQLenPdf::15                      0                       # What read queue length does an incoming req see
system.mem_ctrls.rdQLenPdf::16                      0                       # What read queue length does an incoming req see
system.mem_ctrls.rdQLenPdf::17                      0                       # What read queue length does an incoming req see
system.mem_ctrls.rdQLenPdf::18                      0                       # What read queue length does an incoming req see
system.mem_ctrls.rdQLenPdf::19                      0                       # What read queue length does an incoming req see
system.mem_ctrls.rdQLenPdf::20                      0                       # What read queue length does an incoming req see
system.mem_ctrls.rdQLenPdf::21                      0                       # What read queue length does an incoming req see
system.mem_ctrls.rdQLenPdf::22                      0                       # What read queue length does an incoming req see
system.mem_ctrls.rdQLenPdf::23                      0                       # What read queue length does an incoming req see
system.mem_ctrls.rdQLenPdf::24                      0                       # What read queue length does an incoming req see
system.mem_ctrls.rdQLenPdf::25                      0                       # What read queue length does an incoming req see
system.mem_ctrls.rdQLenPdf::26                      0                       # What read queue length does an incoming req see
system.mem_ctrls.rdQLenPdf::27                      0                       # What read queue length does an incoming req see
system.mem_ctrls.rdQLenPdf::28                      0                       # What read queue length does an incoming req see
system.mem_ctrls.rdQLenPdf::29                      0                       # What read queue length does an incoming req see
system.mem_ctrls.rdQLenPdf::30                      0                       # What read queue length does an incoming req see
system.mem_ctrls.rdQLenPdf::31                      0                       # What read queue length does an incoming req see
system.mem_ctrls.rdQLenPdf::32                      0                       # What read queue length does an incoming req see
system.mem_ctrls.rdQLenPdf::33                      0                       # What read queue length does an incoming req see
system.mem_ctrls.rdQLenPdf::34                      0                       # What read queue length does an incoming req see
system.mem_ctrls.rdQLenPdf::35                      0                       # What read queue length does an incoming req see
system.mem_ctrls.rdQLenPdf::36                      0                       # What read queue length does an incoming req see
system.mem_ctrls.rdQLenPdf::37                      0                       # What read queue length does an incoming req see
system.mem_ctrls.rdQLenPdf::38                      0                       # What read queue length does an incoming req see
system.mem_ctrls.rdQLenPdf::39                      0                       # What read queue length does an incoming req see
system.mem_ctrls.rdQLenPdf::40                      0                       # What read queue length does an incoming req see
system.mem_ctrls.rdQLenPdf::41                      0                       # What read queue length does an incoming req see
system.mem_ctrls.rdQLenPdf::42                      0                       # What read queue length does an incoming req see
system.mem_ctrls.rdQLenPdf::43                      0                       # What read queue length does an incoming req see
system.mem_ctrls.rdQLenPdf::44                      0                       # What read queue length does an incoming req see
system.mem_ctrls.rdQLenPdf::45                      0                       # What read queue length does an incoming req see
system.mem_ctrls.rdQLenPdf::46                      0                       # What read queue length does an incoming req see
system.mem_ctrls.rdQLenPdf::47                      0                       # What read queue length does an incoming req see
system.mem_ctrls.rdQLenPdf::48                      0                       # What read queue length does an incoming req see
system.mem_ctrls.rdQLenPdf::49                      0                       # What read queue length does an incoming req see
system.mem_ctrls.rdQLenPdf::50                      0                       # What read queue length does an incoming req see
system.mem_ctrls.rdQLenPdf::51                      0                       # What read queue length does an incoming req see
system.mem_ctrls.rdQLenPdf::52                      0                       # What read queue length does an incoming req see
system.mem_ctrls.rdQLenPdf::53                      0                       # What read queue length does an incoming req see
system.mem_ctrls.rdQLenPdf::54                      0                       # What read queue length does an incoming req see
system.mem_ctrls.rdQLenPdf::55                      0                       # What read queue length does an incoming req see
system.mem_ctrls.rdQLenPdf::56                      0                       # What read queue length does an incoming req see
system.mem_ctrls.rdQLenPdf::57                      0                       # What read queue length does an incoming req see
system.mem_ctrls.rdQLenPdf::58                      0                       # What read queue length does an incoming req see
system.mem_ctrls.rdQLenPdf::59                      0                       # What read queue length does an incoming req see
system.mem_ctrls.rdQLenPdf::60                      0                       # What read queue length does an incoming req see
system.mem_ctrls.rdQLenPdf::61                      0                       # What read queue length does an incoming req see
system.mem_ctrls.rdQLenPdf::62                      0                       # What read queue length does an incoming req see
system.mem_ctrls.rdQLenPdf::63                      0                       # What read queue length does an incoming req see
system.mem_ctrls.wrQLenPdf::0                       0                       # What write queue length does an incoming req see
system.mem_ctrls.wrQLenPdf::1                       0                       # What write queue length does an incoming req see
system.mem_ctrls.wrQLenPdf::2                       0                       # What write queue length does an incoming req see
system.mem_ctrls.wrQLenPdf::3                       0                       # What write queue length does an incoming req see
system.mem_ctrls.wrQLenPdf::4                       0                       # What write queue length does an incoming req see
system.mem_ctrls.wrQLenPdf::5                       0                       # What write queue length does an incoming req see
system.mem_ctrls.wrQLenPdf::6                       0                       # What write queue length does an incoming req see
system.mem_ctrls.wrQLenPdf::7                       0                       # What write queue length does an incoming req see
system.mem_ctrls.wrQLenPdf::8                       0                       # What write queue length does an incoming req see
system.mem_ctrls.wrQLenPdf::9                       0                       # What write queue length does an incoming req see
system.mem_ctrls.wrQLenPdf::10                      0                       # What write queue length does an incoming req see
system.mem_ctrls.wrQLenPdf::11                      0                       # What write queue length does an incoming req see
system.mem_ctrls.wrQLenPdf::12                      0                       # What write queue length does an incoming req see
system.mem_ctrls.wrQLenPdf::13                      0                       # What write queue length does an incoming req see
system.mem_ctrls.wrQLenPdf::14                      0                       # What write queue length does an incoming req see
system.mem_ctrls.wrQLenPdf::15                      0                       # What write queue length does an incoming req see
system.mem_ctrls.wrQLenPdf::16                      0                       # What write queue length does an incoming req see
system.mem_ctrls.wrQLenPdf::17                      0                       # What write queue length does an incoming req see
system.mem_ctrls.wrQLenPdf::18                      0                       # What write queue length does an incoming req see
system.mem_ctrls.wrQLenPdf::19                      0                       # What write queue length does an incoming req see
system.mem_ctrls.wrQLenPdf::20                      0                       # What write queue length does an incoming req see
system.mem_ctrls.wrQLenPdf::21                      0                       # What write queue length does an incoming req see
system.mem_ctrls.wrQLenPdf::22                      0                       # What write queue length does an incoming req see
system.mem_ctrls.wrQLenPdf::23                      0                       # What write queue length does an incoming req see
system.mem_ctrls.wrQLenPdf::24                      0                       # What write queue length does an incoming req see
system.mem_ctrls.wrQLenPdf::25                      0                       # What write queue length does an incoming req see
system.mem_ctrls.wrQLenPdf::26                      0                       # What write queue length does an incoming req see
system.mem_ctrls.wrQLenPdf::27                      0                       # What write queue length does an incoming req see
system.mem_ctrls.wrQLenPdf::28                      0                       # What write queue length does an incoming req see
system.mem_ctrls.wrQLenPdf::29                      0                       # What write queue length does an incoming req see
system.mem_ctrls.wrQLenPdf::30                      0                       # What write queue length does an incoming req see
system.mem_ctrls.wrQLenPdf::31                      0                       # What write queue length does an incoming req see
system.mem_ctrls.wrQLenPdf::32                      0                       # What write queue length does an incoming req see
system.mem_ctrls.wrQLenPdf::33                      0                       # What write queue length does an incoming req see
system.mem_ctrls.wrQLenPdf::34                      0                       # What write queue length does an incoming req see
system.mem_ctrls.wrQLenPdf::35                      0                       # What write queue length does an incoming req see
system.mem_ctrls.wrQLenPdf::36                      0                       # What write queue length does an incoming req see
system.mem_ctrls.wrQLenPdf::37                      0                       # What write queue length does an incoming req see
system.mem_ctrls.wrQLenPdf::38                      0                       # What write queue length does an incoming req see
system.mem_ctrls.wrQLenPdf::39                      0                       # What write queue length does an incoming req see
system.mem_ctrls.wrQLenPdf::40                      0                       # What write queue length does an incoming req see
system.mem_ctrls.wrQLenPdf::41                      0                       # What write queue length does an incoming req see
system.mem_ctrls.wrQLenPdf::42                      0                       # What write queue length does an incoming req see
system.mem_ctrls.wrQLenPdf::43                      0                       # What write queue length does an incoming req see
system.mem_ctrls.wrQLenPdf::44                      0                       # What write queue length does an incoming req see
system.mem_ctrls.wrQLenPdf::45                      0                       # What write queue length does an incoming req see
system.mem_ctrls.wrQLenPdf::46                      0                       # What write queue length does an incoming req see
system.mem_ctrls.wrQLenPdf::47                      0                       # What write queue length does an incoming req see
system.mem_ctrls.wrQLenPdf::48                      0                       # What write queue length does an incoming req see
system.mem_ctrls.wrQLenPdf::49                      0                       # What write queue length does an incoming req see
system.mem_ctrls.wrQLenPdf::50                      0                       # What write queue length does an incoming req see
system.mem_ctrls.wrQLenPdf::51                      0                       # What write queue length does an incoming req see
system.mem_ctrls.wrQLenPdf::52                      0                       # What write queue length does an incoming req see
system.mem_ctrls.wrQLenPdf::53                      0                       # What write queue length does an incoming req see
system.mem_ctrls.wrQLenPdf::54                      0                       # What write queue length does an incoming req see
system.mem_ctrls.wrQLenPdf::55                      0                       # What write queue length does an incoming req see
system.mem_ctrls.wrQLenPdf::56                      0                       # What write queue length does an incoming req see
system.mem_ctrls.wrQLenPdf::57                      0                       # What write queue length does an incoming req see
system.mem_ctrls.wrQLenPdf::58                      0                       # What write queue length does an incoming req see
system.mem_ctrls.wrQLenPdf::59                      0                       # What write queue length does an incoming req see
system.mem_ctrls.wrQLenPdf::60                      0                       # What write queue length does an incoming req see
system.mem_ctrls.wrQLenPdf::61                      0                       # What write queue length does an incoming req see
system.mem_ctrls.wrQLenPdf::62                      0                       # What write queue length does an incoming req see
system.mem_ctrls.wrQLenPdf::63                      0                       # What write queue length does an incoming req see
system.mem_ctrls.wrQLenPdf::64                      0                       # What write queue length does an incoming req see
system.mem_ctrls.wrQLenPdf::65                      0                       # What write queue length does an incoming req see
system.mem_ctrls.wrQLenPdf::66                      0                       # What write queue length does an incoming req see
system.mem_ctrls.wrQLenPdf::67                      0                       # What write queue length does an incoming req see
system.mem_ctrls.wrQLenPdf::68                      0                       # What write queue length does an incoming req see
system.mem_ctrls.wrQLenPdf::69                      0                       # What write queue length does an incoming req see
system.mem_ctrls.wrQLenPdf::70                      0                       # What write queue length does an incoming req see
system.mem_ctrls.wrQLenPdf::71                      0                       # What write queue length does an incoming req see
system.mem_ctrls.wrQLenPdf::72                      0                       # What write queue length does an incoming req see
system.mem_ctrls.wrQLenPdf::73                      0                       # What write queue length does an incoming req see
system.mem_ctrls.wrQLenPdf::74                      0                       # What write queue length does an incoming req see
system.mem_ctrls.wrQLenPdf::75                      0                       # What write queue length does an incoming req see
system.mem_ctrls.wrQLenPdf::76                      0                       # What write queue length does an incoming req see
system.mem_ctrls.wrQLenPdf::77                      0                       # What write queue length does an incoming req see
system.mem_ctrls.wrQLenPdf::78                      0                       # What write queue length does an incoming req see
system.mem_ctrls.wrQLenPdf::79                      0                       # What write queue length does an incoming req see
system.mem_ctrls.wrQLenPdf::80                      0                       # What write queue length does an incoming req see
system.mem_ctrls.wrQLenPdf::81                      0                       # What write queue length does an incoming req see
system.mem_ctrls.wrQLenPdf::82                      0                       # What write queue length does an incoming req see
system.mem_ctrls.wrQLenPdf::83                      0                       # What write queue length does an incoming req see
system.mem_ctrls.wrQLenPdf::84                      0                       # What write queue length does an incoming req see
system.mem_ctrls.wrQLenPdf::85                      0                       # What write queue length does an incoming req see
system.mem_ctrls.wrQLenPdf::86                      0                       # What write queue length does an incoming req see
system.mem_ctrls.wrQLenPdf::87                      0                       # What write queue length does an incoming req see
system.mem_ctrls.wrQLenPdf::88                      0                       # What write queue length does an incoming req see
system.mem_ctrls.wrQLenPdf::89                      0                       # What write queue length does an incoming req see
system.mem_ctrls.wrQLenPdf::90                      0                       # What write queue length does an incoming req see
system.mem_ctrls.wrQLenPdf::91                      0                       # What write queue length does an incoming req see
system.mem_ctrls.wrQLenPdf::92                      0                       # What write queue length does an incoming req see
system.mem_ctrls.wrQLenPdf::93                      0                       # What write queue length does an incoming req see
system.mem_ctrls.wrQLenPdf::94                      0                       # What write queue length does an incoming req see
system.mem_ctrls.wrQLenPdf::95                      0                       # What write queue length does an incoming req see
system.mem_ctrls.wrQLenPdf::96                      0                       # What write queue length does an incoming req see
system.mem_ctrls.wrQLenPdf::97                      0                       # What write queue length does an incoming req see
system.mem_ctrls.wrQLenPdf::98                      0                       # What write queue length does an incoming req see
system.mem_ctrls.wrQLenPdf::99                      0                       # What write queue length does an incoming req see
system.mem_ctrls.wrQLenPdf::100                     0                       # What write queue length does an incoming req see
system.mem_ctrls.wrQLenPdf::101                     0                       # What write queue length does an incoming req see
system.mem_ctrls.wrQLenPdf::102                     0                       # What write queue length does an incoming req see
system.mem_ctrls.wrQLenPdf::103                     0                       # What write queue length does an incoming req see
system.mem_ctrls.wrQLenPdf::104                     0                       # What write queue length does an incoming req see
system.mem_ctrls.wrQLenPdf::105                     0                       # What write queue length does an incoming req see
system.mem_ctrls.wrQLenPdf::106                     0                       # What write queue length does an incoming req see
system.mem_ctrls.wrQLenPdf::107                     0                       # What write queue length does an incoming req see
system.mem_ctrls.wrQLenPdf::108                     0                       # What write queue length does an incoming req see
system.mem_ctrls.wrQLenPdf::109                     0                       # What write queue length does an incoming req see
system.mem_ctrls.wrQLenPdf::110                     0                       # What write queue length does an incoming req see
system.mem_ctrls.wrQLenPdf::111                     0                       # What write queue length does an incoming req see
system.mem_ctrls.wrQLenPdf::112                     0                       # What write queue length does an incoming req see
system.mem_ctrls.wrQLenPdf::113                     0                       # What write queue length does an incoming req see
system.mem_ctrls.wrQLenPdf::114                     0                       # What write queue length does an incoming req see
system.mem_ctrls.wrQLenPdf::115                     0                       # What write queue length does an incoming req see
system.mem_ctrls.wrQLenPdf::116                     0                       # What write queue length does an incoming req see
system.mem_ctrls.wrQLenPdf::117                     0                       # What write queue length does an incoming req see
system.mem_ctrls.wrQLenPdf::118                     0                       # What write queue length does an incoming req see
system.mem_ctrls.wrQLenPdf::119                     0                       # What write queue length does an incoming req see
system.mem_ctrls.wrQLenPdf::120                     0                       # What write queue length does an incoming req see
system.mem_ctrls.wrQLenPdf::121                     0                       # What write queue length does an incoming req see
system.mem_ctrls.wrQLenPdf::122                     0                       # What write queue length does an incoming req see
system.mem_ctrls.wrQLenPdf::123                     0                       # What write queue length does an incoming req see
system.mem_ctrls.wrQLenPdf::124                     0                       # What write queue length does an incoming req see
system.mem_ctrls.wrQLenPdf::125                     0                       # What write queue length does an incoming req see
system.mem_ctrls.wrQLenPdf::126                     0                       # What write queue length does an incoming req see
system.mem_ctrls.wrQLenPdf::127                     0                       # What write queue length does an incoming req see
system.mem_ctrls.totQLat                            0                       # Total ticks spent queuing
system.mem_ctrls.totMemAccLat                       0                       # Total ticks spent from burst creation until serviced by the DRAM
system.mem_ctrls.totBusLat                          0                       # Total ticks spent in databus transfers
system.mem_ctrls.avgQLat                          nan                       # Average queueing delay per DRAM burst
system.mem_ctrls.avgBusLat                        nan                       # Average bus latency per DRAM burst
system.mem_ctrls.avgMemAccLat                     nan                       # Average memory access latency per DRAM burst
system.mem_ctrls.avgRdBW                         0.00                       # Average DRAM read bandwidth in MiByte/s
system.mem_ctrls.avgWrBW                         0.00                       # Average achieved write bandwidth in MiByte/s
system.mem_ctrls.avgRdBWSys                      0.00                       # Average system read bandwidth in MiByte/s
system.mem_ctrls.avgWrBWSys                      0.00                       # Average system write bandwidth in MiByte/s
system.mem_ctrls.peakBW                      19207.00                       # Theoretical peak bandwidth in MiByte/s
system.mem_ctrls.busUtil                         0.00                       # Data bus utilization in percentage
system.mem_ctrls.busUtilRead                     0.00                       # Data bus utilization in percentage for reads
system.mem_ctrls.busUtilWrite                    0.00                       # Data bus utilization in percentage for writes
system.mem_ctrls.avgRdQLen                       0.00                       # Average read queue length when enqueuing
system.mem_ctrls.avgWrQLen                       0.00                       # Average write queue length when enqueuing
system.mem_ctrls.readRowHits                        0                       # Number of row buffer hits during reads
system.mem_ctrls.writeRowHits                       0                       # Number of row buffer hits during writes
system.mem_ctrls.readRowHitRate                   nan                       # Row buffer hit rate for reads
system.mem_ctrls.writeRowHitRate                  nan                       # Row buffer hit rate for writes
system.mem_ctrls.avgGap                           nan                       # Average gap between requests
system.mem_ctrls.pageHitRate                      nan                       # Row buffer hit rate, read and write combined
system.mem_ctrls_0.actEnergy                        0                       # Energy for activate commands per rank (pJ)
system.mem_ctrls_0.preEnergy                        0                       # Energy for precharge commands per rank (pJ)
system.mem_ctrls_0.readEnergy                       0                       # Energy for read commands per rank (pJ)
system.mem_ctrls_0.writeEnergy                      0                       # Energy for write commands per rank (pJ)
system.mem_ctrls_0.refreshEnergy                    0                       # Energy for refresh commands per rank (pJ)
system.mem_ctrls_0.actBackEnergy                    0                       # Energy for active background per rank (pJ)
system.mem_ctrls_0.preBackEnergy         1402035948929534                       # Energy for precharge background per rank (pJ)
system.mem_ctrls_0.actPowerDownEnergy               0                       # Energy for active power-down per rank (pJ)
system.mem_ctrls_0.prePowerDownEnergy               0                       # Energy for precharge power-down per rank (pJ)
system.mem_ctrls_0.selfRefreshEnergy                0                       # Energy for self refresh per rank (pJ)
system.mem_ctrls_0.totalEnergy           1402035948929534                       # Total energy per rank (pJ)
system.mem_ctrls_0.averagePower            163.200000                       # Core power per rank (mW)
system.mem_ctrls_0.totalIdleTime                    0                       # Total Idle time Per DRAM Rank
system.mem_ctrls_0.memoryStateTime::IDLE 15338029604594500                       # Time in different power states
system.mem_ctrls_0.memoryStateTime::REF             0                       # Time in different power states
system.mem_ctrls_0.memoryStateTime::SREF            0                       # Time in different power states
system.mem_ctrls_0.memoryStateTime::PRE_PDN            0                       # Time in different power states
system.mem_ctrls_0.memoryStateTime::ACT             0                       # Time in different power states
system.mem_ctrls_0.memoryStateTime::ACT_PDN            0                       # Time in different power states
system.mem_ctrls_1.actEnergy                        0                       # Energy for activate commands per rank (pJ)
system.mem_ctrls_1.preEnergy                        0                       # Energy for precharge commands per rank (pJ)
system.mem_ctrls_1.readEnergy                       0                       # Energy for read commands per rank (pJ)
system.mem_ctrls_1.writeEnergy                      0                       # Energy for write commands per rank (pJ)
system.mem_ctrls_1.refreshEnergy                    0                       # Energy for refresh commands per rank (pJ)
system.mem_ctrls_1.actBackEnergy                    0                       # Energy for active background per rank (pJ)
system.mem_ctrls_1.preBackEnergy         1402035948929534                       # Energy for precharge background per rank (pJ)
system.mem_ctrls_1.actPowerDownEnergy               0                       # Energy for active power-down per rank (pJ)
system.mem_ctrls_1.prePowerDownEnergy               0                       # Energy for precharge power-down per rank (pJ)
system.mem_ctrls_1.selfRefreshEnergy                0                       # Energy for self refresh per rank (pJ)
[...]
system.tol2bus12.pkt_size_system.cpu12.dcache.mem_side::system.l212.cpu_side      5215789                       # Cumulative packet size per connected master and slave (bytes)
system.tol2bus12.pkt_size_system.cpu12.itb.walker.dma::system.l212.cpu_side       112352                       # Cumulative packet size per connected master and slave (bytes)
system.tol2bus12.pkt_size_system.cpu12.dtb.walker.dma::system.l212.cpu_side        34192                       # Cumulative packet size per connected master and slave (bytes)
system.tol2bus12.pkt_size::total             12535837                       # Cumulative packet size per connected master and slave (bytes)
system.tol2bus12.snoops                        631343                       # Total snoops (count)
system.tol2bus12.snoopTraffic                  281856                       # Total snoop traffic (bytes)
system.tol2bus12.snoop_fanout::samples         764678                       # Request fanout histogram
system.tol2bus12.snoop_fanout::mean          0.150348                       # Request fanout histogram
system.tol2bus12.snoop_fanout::stdev         0.357413                       # Request fanout histogram
system.tol2bus12.snoop_fanout::underflows            0      0.00%      0.00% # Request fanout histogram
system.tol2bus12.snoop_fanout::0               649710     84.97%     84.97% # Request fanout histogram
system.tol2bus12.snoop_fanout::1               114968     15.03%    100.00% # Request fanout histogram
system.tol2bus12.snoop_fanout::2                    0      0.00%    100.00% # Request fanout histogram
system.tol2bus12.snoop_fanout::overflows            0      0.00%    100.00% # Request fanout histogram
system.tol2bus12.snoop_fanout::min_value            0                       # Request fanout histogram
system.tol2bus12.snoop_fanout::max_value            1                       # Request fanout histogram
system.tol2bus12.snoop_fanout::total           764678                       # Request fanout histogram
system.tol2bus12.directResponses                    0                       # auxiliar stat for checking how reasonable wireless model is
system.tol2bus13.snoop_filter.tot_requests      3223992                       # Total number of requests made to the snoop filter.
system.tol2bus13.snoop_filter.hit_single_requests      1615113                       # Number of requests hitting in the snoop filter with a single holder of the requested data.
system.tol2bus13.snoop_filter.hit_multi_requests            0                       # Number of requests hitting in the snoop filter with multiple (>1) holders of the requested data.
system.tol2bus13.snoop_filter.tot_snoops       157082                       # Total number of snoops made to the snoop filter.
system.tol2bus13.snoop_filter.hit_single_snoops       157082                       # Number of snoops hitting in the snoop filter with a single holder of the requested data.
system.tol2bus13.snoop_filter.hit_multi_snoops            0                       # Number of snoops hitting in the snoop filter with multiple (>1) holders of the requested data.
system.tol2bus13.pwrStateResidencyTicks::UNDEFINED 15338029604594500                       # Cumulative time (in ticks) in various power states
system.tol2bus13.trans_dist::ReadReq           564797                       # Transaction distribution
system.tol2bus13.trans_dist::ReadResp         2079793                       # Transaction distribution
system.tol2bus13.trans_dist::WriteReq            1096                       # Transaction distribution
system.tol2bus13.trans_dist::WriteResp           1096                       # Transaction distribution
system.tol2bus13.trans_dist::WritebackDirty       183848                       # Transaction distribution
system.tol2bus13.trans_dist::WritebackClean      1169863                       # Transaction distribution
system.tol2bus13.trans_dist::CleanEvict        238059                       # Transaction distribution
system.tol2bus13.trans_dist::UpgradeReq         11600                       # Transaction distribution
system.tol2bus13.trans_dist::SCUpgradeReq        10763                       # Transaction distribution
system.tol2bus13.trans_dist::UpgradeResp        22363                       # Transaction distribution
system.tol2bus13.trans_dist::ReadExReq          68299                       # Transaction distribution
system.tol2bus13.trans_dist::ReadExResp         68299                       # Transaction distribution
system.tol2bus13.trans_dist::ReadCleanReq      1170375                       # Transaction distribution
system.tol2bus13.trans_dist::ReadSharedReq       344621                       # Transaction distribution
system.tol2bus13.trans_dist::InvalidateReq        25601                       # Transaction distribution
system.tol2bus13.trans_dist::InvalidateResp        25601                       # Transaction distribution
system.tol2bus13.pkt_count_system.cpu13.icache.mem_side::system.l213.cpu_side      3510613                       # Packet count per connected master and slave (bytes)
system.tol2bus13.pkt_count_system.cpu13.dcache.mem_side::system.l213.cpu_side      1350409                       # Packet count per connected master and slave (bytes)
system.tol2bus13.pkt_count_system.cpu13.itb.walker.dma::system.l213.cpu_side       736284                       # Packet count per connected master and slave (bytes)
system.tol2bus13.pkt_count_system.cpu13.dtb.walker.dma::system.l213.cpu_side       388768                       # Packet count per connected master and slave (bytes)
system.tol2bus13.pkt_count::total             5986074                       # Packet count per connected master and slave (bytes)
system.tol2bus13.pkt_size_system.cpu13.icache.mem_side::system.l213.cpu_side    149775232                       # Cumulative packet size per connected master and slave (bytes)
system.tol2bus13.pkt_size_system.cpu13.dcache.mem_side::system.l213.cpu_side     38206620                       # Cumulative packet size per connected master and slave (bytes)
system.tol2bus13.pkt_size_system.cpu13.itb.walker.dma::system.l213.cpu_side      2945136                       # Cumulative packet size per connected master and slave (bytes)
system.tol2bus13.pkt_size_system.cpu13.dtb.walker.dma::system.l213.cpu_side      1555072                       # Cumulative packet size per connected master and slave (bytes)
system.tol2bus13.pkt_size::total            192482060                       # Cumulative packet size per connected master and slave (bytes)
system.tol2bus13.snoops                        763823                       # Total snoops (count)
system.tol2bus13.snoopTraffic                  404160                       # Total snoop traffic (bytes)
system.tol2bus13.snoop_fanout::samples        2931897                       # Request fanout histogram
system.tol2bus13.snoop_fanout::mean          0.053905                       # Request fanout histogram
system.tol2bus13.snoop_fanout::stdev         0.225831                       # Request fanout histogram
system.tol2bus13.snoop_fanout::underflows            0      0.00%      0.00% # Request fanout histogram
system.tol2bus13.snoop_fanout::0              2773852     94.61%     94.61% # Request fanout histogram
system.tol2bus13.snoop_fanout::1               158045      5.39%    100.00% # Request fanout histogram
system.tol2bus13.snoop_fanout::2                    0      0.00%    100.00% # Request fanout histogram
system.tol2bus13.snoop_fanout::overflows            0      0.00%    100.00% # Request fanout histogram
system.tol2bus13.snoop_fanout::min_value            0                       # Request fanout histogram
system.tol2bus13.snoop_fanout::max_value            1                       # Request fanout histogram
system.tol2bus13.snoop_fanout::total          2931897                       # Request fanout histogram
system.tol2bus13.directResponses                    0                       # auxiliar stat for checking how reasonable wireless model is
system.tol2bus14.snoop_filter.tot_requests     51119588                       # Total number of requests made to the snoop filter.
system.tol2bus14.snoop_filter.hit_single_requests     25575471                       # Number of requests hitting in the snoop filter with a single holder of the requested data.
system.tol2bus14.snoop_filter.hit_multi_requests           12                       # Number of requests hitting in the snoop filter with multiple (>1) holders of the requested data.
system.tol2bus14.snoop_filter.tot_snoops       457168                       # Total number of snoops made to the snoop filter.
system.tol2bus14.snoop_filter.hit_single_snoops       457168                       # Number of snoops hitting in the snoop filter with a single holder of the requested data.
system.tol2bus14.snoop_filter.hit_multi_snoops            0                       # Number of snoops hitting in the snoop filter with multiple (>1) holders of the requested data.
system.tol2bus14.pwrStateResidencyTicks::UNDEFINED 15338029604594500                       # Cumulative time (in ticks) in various power states
system.tol2bus14.trans_dist::ReadReq          7056396                       # Transaction distribution
system.tol2bus14.trans_dist::ReadResp        31329457                       # Transaction distribution
system.tol2bus14.trans_dist::WriteReq            4935                       # Transaction distribution
system.tol2bus14.trans_dist::WriteResp           4935                       # Transaction distribution
system.tol2bus14.trans_dist::WritebackDirty      2970873                       # Transaction distribution
system.tol2bus14.trans_dist::WritebackClean     19859241                       # Transaction distribution
system.tol2bus14.trans_dist::CleanEvict       2635041                       # Transaction distribution
system.tol2bus14.trans_dist::UpgradeReq         53916                       # Transaction distribution
system.tol2bus14.trans_dist::SCUpgradeReq        43021                       # Transaction distribution
system.tol2bus14.trans_dist::UpgradeResp        96937                       # Transaction distribution
system.tol2bus14.trans_dist::ReadExReq         974013                       # Transaction distribution
system.tol2bus14.trans_dist::ReadExResp        974013                       # Transaction distribution
system.tol2bus14.trans_dist::ReadCleanReq     19859753                       # Transaction distribution
system.tol2bus14.trans_dist::ReadSharedReq      4413308                       # Transaction distribution
system.tol2bus14.trans_dist::InvalidateReq       298921                       # Transaction distribution
system.tol2bus14.trans_dist::InvalidateResp       298921                       # Transaction distribution
system.tol2bus14.pkt_count_system.cpu14.icache.mem_side::system.l214.cpu_side     59578747                       # Packet count per connected master and slave (bytes)
system.tol2bus14.pkt_count_system.cpu14.dcache.mem_side::system.l214.cpu_side     17190112                       # Packet count per connected master and slave (bytes)
system.tol2bus14.pkt_count_system.cpu14.itb.walker.dma::system.l214.cpu_side     12069434                       # Packet count per connected master and slave (bytes)
system.tol2bus14.pkt_count_system.cpu14.dtb.walker.dma::system.l214.cpu_side      2035388                       # Packet count per connected master and slave (bytes)
system.tol2bus14.pkt_count::total            90873681                       # Packet count per connected master and slave (bytes)
system.tol2bus14.pkt_size_system.cpu14.icache.mem_side::system.l214.cpu_side   2542015616                       # Cumulative packet size per connected master and slave (bytes)
system.tol2bus14.pkt_size_system.cpu14.dcache.mem_side::system.l214.cpu_side    534960096                       # Cumulative packet size per connected master and slave (bytes)
system.tol2bus14.pkt_size_system.cpu14.itb.walker.dma::system.l214.cpu_side     48277736                       # Cumulative packet size per connected master and slave (bytes)
system.tol2bus14.pkt_size_system.cpu14.dtb.walker.dma::system.l214.cpu_side      8141552                       # Cumulative packet size per connected master and slave (bytes)
system.tol2bus14.pkt_size::total           3133395000                       # Cumulative packet size per connected master and slave (bytes)
system.tol2bus14.snoops                       1836684                       # Total snoops (count)
system.tol2bus14.snoopTraffic                13965952                       # Total snoop traffic (bytes)
system.tol2bus14.snoop_fanout::samples       34399249                       # Request fanout histogram
system.tol2bus14.snoop_fanout::mean          0.013625                       # Request fanout histogram
system.tol2bus14.snoop_fanout::stdev         0.115927                       # Request fanout histogram
system.tol2bus14.snoop_fanout::underflows            0      0.00%      0.00% # Request fanout histogram
system.tol2bus14.snoop_fanout::0             33930568     98.64%     98.64% # Request fanout histogram
system.tol2bus14.snoop_fanout::1               468681      1.36%    100.00% # Request fanout histogram
system.tol2bus14.snoop_fanout::2                    0      0.00%    100.00% # Request fanout histogram
system.tol2bus14.snoop_fanout::overflows            0      0.00%    100.00% # Request fanout histogram
system.tol2bus14.snoop_fanout::min_value            0                       # Request fanout histogram
system.tol2bus14.snoop_fanout::max_value            1                       # Request fanout histogram
system.tol2bus14.snoop_fanout::total         34399249                       # Request fanout histogram
system.tol2bus14.directResponses                    0                       # auxiliar stat for checking how reasonable wireless model is
system.tol2bus15.snoop_filter.tot_requests      4418419                       # Total number of requests made to the snoop filter.
system.tol2bus15.snoop_filter.hit_single_requests      2225997                       # Number of requests hitting in the snoop filter with a single holder of the requested data.
system.tol2bus15.snoop_filter.hit_multi_requests           35                       # Number of requests hitting in the snoop filter with multiple (>1) holders of the requested data.
system.tol2bus15.snoop_filter.tot_snoops       192250                       # Total number of snoops made to the snoop filter.
system.tol2bus15.snoop_filter.hit_single_snoops       192250                       # Number of snoops hitting in the snoop filter with a single holder of the requested data.
system.tol2bus15.snoop_filter.hit_multi_snoops            0                       # Number of snoops hitting in the snoop filter with multiple (>1) holders of the requested data.
system.tol2bus15.pwrStateResidencyTicks::UNDEFINED 15338029604594500                       # Cumulative time (in ticks) in various power states
system.tol2bus15.trans_dist::ReadReq           729425                       # Transaction distribution
system.tol2bus15.trans_dist::ReadResp         2779694                       # Transaction distribution
system.tol2bus15.trans_dist::WriteReq            1433                       # Transaction distribution
system.tol2bus15.trans_dist::WriteResp           1433                       # Transaction distribution
system.tol2bus15.trans_dist::WritebackDirty       305400                       # Transaction distribution
system.tol2bus15.trans_dist::WritebackClean      1514389                       # Transaction distribution
system.tol2bus15.trans_dist::CleanEvict        347830                       # Transaction distribution
system.tol2bus15.trans_dist::UpgradeReq         18514                       # Transaction distribution
system.tol2bus15.trans_dist::SCUpgradeReq        18404                       # Transaction distribution
system.tol2bus15.trans_dist::UpgradeResp        36918                       # Transaction distribution
system.tol2bus15.trans_dist::ReadExReq         101199                       # Transaction distribution
system.tol2bus15.trans_dist::ReadExResp        101199                       # Transaction distribution
system.tol2bus15.trans_dist::ReadCleanReq      1514901                       # Transaction distribution
system.tol2bus15.trans_dist::ReadSharedReq       535368                       # Transaction distribution
system.tol2bus15.trans_dist::InvalidateReq        41056                       # Transaction distribution
system.tol2bus15.trans_dist::InvalidateResp        41056                       # Transaction distribution
system.tol2bus15.pkt_count_system.cpu15.icache.mem_side::system.l215.cpu_side      4544191                       # Packet count per connected master and slave (bytes)
system.tol2bus15.pkt_count_system.cpu15.dcache.mem_side::system.l215.cpu_side      2091100                       # Packet count per connected master and slave (bytes)
system.tol2bus15.pkt_count_system.cpu15.itb.walker.dma::system.l215.cpu_side       941362                       # Packet count per connected master and slave (bytes)
system.tol2bus15.pkt_count_system.cpu15.dtb.walker.dma::system.l215.cpu_side       511566                       # Packet count per connected master and slave (bytes)
system.tol2bus15.pkt_count::total             8088219                       # Packet count per connected master and slave (bytes)
system.tol2bus15.pkt_size_system.cpu15.icache.mem_side::system.l215.cpu_side    193874560                       # Cumulative packet size per connected master and slave (bytes)
system.tol2bus15.pkt_size_system.cpu15.dcache.mem_side::system.l215.cpu_side     60303464                       # Cumulative packet size per connected master and slave (bytes)
system.tol2bus15.pkt_size_system.cpu15.itb.walker.dma::system.l215.cpu_side      3765448                       # Cumulative packet size per connected master and slave (bytes)
system.tol2bus15.pkt_size_system.cpu15.dtb.walker.dma::system.l215.cpu_side      2046264                       # Cumulative packet size per connected master and slave (bytes)
system.tol2bus15.pkt_size::total            259989736                       # Cumulative packet size per connected master and slave (bytes)
system.tol2bus15.snoops                       1048246                       # Total snoops (count)
system.tol2bus15.snoopTraffic                 1710016                       # Total snoop traffic (bytes)
system.tol2bus15.snoop_fanout::samples        3965334                       # Request fanout histogram
system.tol2bus15.snoop_fanout::mean          0.053878                       # Request fanout histogram
system.tol2bus15.snoop_fanout::stdev         0.225776                       # Request fanout histogram
system.tol2bus15.snoop_fanout::underflows            0      0.00%      0.00% # Request fanout histogram
system.tol2bus15.snoop_fanout::0              3751691     94.61%     94.61% # Request fanout histogram
system.tol2bus15.snoop_fanout::1               213643      5.39%    100.00% # Request fanout histogram
system.tol2bus15.snoop_fanout::2                    0      0.00%    100.00% # Request fanout histogram
system.tol2bus15.snoop_fanout::overflows            0      0.00%    100.00% # Request fanout histogram
system.tol2bus15.snoop_fanout::min_value            0                       # Request fanout histogram
system.tol2bus15.snoop_fanout::max_value            1                       # Request fanout histogram
system.tol2bus15.snoop_fanout::total          3965334                       # Request fanout histogram
system.tol2bus15.directResponses                    0                       # auxiliar stat for checking how reasonable wireless model is

---------- End Simulation Statistics   ----------
