
---------- Begin Simulation Statistics ----------
sim_seconds                               5443.700268                       # Number of seconds simulated
sim_ticks                                5443700267886500                       # Number of ticks simulated
final_tick                               12190823322667500                       # Number of ticks from beginning of simulation (restored from checkpoints and never reset)
sim_freq                                 1000000000000                       # Frequency of simulated ticks
host_inst_rate                                2249890                       # Simulator instruction rate (inst/s)
host_op_rate                                  2527362                       # Simulator op (including micro ops) rate (op/s)
host_tick_rate                           904331358022                       # Simulator tick rate (ticks/s)
host_mem_usage                                5046592                       # Number of bytes of host memory used
host_seconds                                  6019.59                       # Real time elapsed on the host
sim_insts                                 13543407729                       # Number of instructions simulated
sim_ops                                   15213674703                       # Number of ops (including micro ops) simulated
system.voltage_domain.voltage                       1                       # Voltage in Volts
system.clk_domain.clock                           625                       # Clock period in ticks
system.bootmem.pwrStateResidencyTicks::UNDEFINED 12190823322667500                       # Cumulative time (in ticks) in various power states
system.mem_ctrls.pwrStateResidencyTicks::UNDEFINED 12190823322667500                       # Cumulative time (in ticks) in various power states
system.mem_ctrls.bytes_read::cpu00.dtb.walker       158400                       # Number of bytes read from this memory
system.mem_ctrls.bytes_read::cpu00.itb.walker        87232                       # Number of bytes read from this memory
system.mem_ctrls.bytes_read::cpu00.inst       5867456                       # Number of bytes read from this memory
system.mem_ctrls.bytes_read::cpu00.data      80415168                       # Number of bytes read from this memory
system.mem_ctrls.bytes_read::cpu01.dtb.walker        98880                       # Number of bytes read from this memory
system.mem_ctrls.bytes_read::cpu01.itb.walker        20544                       # Number of bytes read from this memory
system.mem_ctrls.bytes_read::cpu01.inst       1880320                       # Number of bytes read from this memory
system.mem_ctrls.bytes_read::cpu01.data       7831040                       # Number of bytes read from this memory
system.mem_ctrls.bytes_read::cpu02.dtb.walker       164608                       # Number of bytes read from this memory
system.mem_ctrls.bytes_read::cpu02.itb.walker        60160                       # Number of bytes read from this memory
system.mem_ctrls.bytes_read::cpu02.inst       4308736                       # Number of bytes read from this memory
system.mem_ctrls.bytes_read::cpu02.data       9369408                       # Number of bytes read from this memory
system.mem_ctrls.bytes_read::cpu03.dtb.walker        68096                       # Number of bytes read from this memory
system.mem_ctrls.bytes_read::cpu03.itb.walker        27136                       # Number of bytes read from this memory
system.mem_ctrls.bytes_read::cpu03.inst       2014592                       # Number of bytes read from this memory
system.mem_ctrls.bytes_read::cpu03.data       7399936                       # Number of bytes read from this memory
system.mem_ctrls.bytes_read::cpu04.dtb.walker       111424                       # Number of bytes read from this memory
system.mem_ctrls.bytes_read::cpu04.itb.walker        37888                       # Number of bytes read from this memory
system.mem_ctrls.bytes_read::cpu04.inst       3650176                       # Number of bytes read from this memory
system.mem_ctrls.bytes_read::cpu04.data      11811648                       # Number of bytes read from this memory
system.mem_ctrls.bytes_read::cpu05.dtb.walker       112320                       # Number of bytes read from this memory
system.mem_ctrls.bytes_read::cpu05.itb.walker        39744                       # Number of bytes read from this memory
system.mem_ctrls.bytes_read::cpu05.inst       1778304                       # Number of bytes read from this memory
system.mem_ctrls.bytes_read::cpu05.data       7833536                       # Number of bytes read from this memory
system.mem_ctrls.bytes_read::cpu06.dtb.walker        81984                       # Number of bytes read from this memory
system.mem_ctrls.bytes_read::cpu06.itb.walker        38592                       # Number of bytes read from this memory
system.mem_ctrls.bytes_read::cpu06.inst       2284352                       # Number of bytes read from this memory
system.mem_ctrls.bytes_read::cpu06.data       8145792                       # Number of bytes read from this memory
system.mem_ctrls.bytes_read::cpu07.dtb.walker        80704                       # Number of bytes read from this memory
system.mem_ctrls.bytes_read::cpu07.itb.walker        17088                       # Number of bytes read from this memory
system.mem_ctrls.bytes_read::cpu07.inst       1754112                       # Number of bytes read from this memory
system.mem_ctrls.bytes_read::cpu07.data       6358528                       # Number of bytes read from this memory
system.mem_ctrls.bytes_read::cpu08.dtb.walker        60416                       # Number of bytes read from this memory
system.mem_ctrls.bytes_read::cpu08.itb.walker        22208                       # Number of bytes read from this memory
system.mem_ctrls.bytes_read::cpu08.inst       2655232                       # Number of bytes read from this memory
system.mem_ctrls.bytes_read::cpu08.data       6899712                       # Number of bytes read from this memory
system.mem_ctrls.bytes_read::cpu09.dtb.walker        64576                       # Number of bytes read from this memory
system.mem_ctrls.bytes_read::cpu09.itb.walker        30208                       # Number of bytes read from this memory
system.mem_ctrls.bytes_read::cpu09.inst       2459072                       # Number of bytes read from this memory
system.mem_ctrls.bytes_read::cpu09.data       7381696                       # Number of bytes read from this memory
system.mem_ctrls.bytes_read::cpu10.dtb.walker      3317952                       # Number of bytes read from this memory
system.mem_ctrls.bytes_read::cpu10.itb.walker        92352                       # Number of bytes read from this memory
system.mem_ctrls.bytes_read::cpu10.inst       4400192                       # Number of bytes read from this memory
system.mem_ctrls.bytes_read::cpu10.data     175640960                       # Number of bytes read from this memory
system.mem_ctrls.bytes_read::cpu11.dtb.walker        67008                       # Number of bytes read from this memory
system.mem_ctrls.bytes_read::cpu11.itb.walker        29824                       # Number of bytes read from this memory
system.mem_ctrls.bytes_read::cpu11.inst       2273472                       # Number of bytes read from this memory
system.mem_ctrls.bytes_read::cpu11.data       6436608                       # Number of bytes read from this memory
system.mem_ctrls.bytes_read::cpu12.dtb.walker        46144                       # Number of bytes read from this memory
system.mem_ctrls.bytes_read::cpu12.itb.walker        20352                       # Number of bytes read from this memory
system.mem_ctrls.bytes_read::cpu12.inst       1141760                       # Number of bytes read from this memory
system.mem_ctrls.bytes_read::cpu12.data       5616128                       # Number of bytes read from this memory
system.mem_ctrls.bytes_read::cpu13.dtb.walker       112576                       # Number of bytes read from this memory
system.mem_ctrls.bytes_read::cpu13.itb.walker        36032                       # Number of bytes read from this memory
system.mem_ctrls.bytes_read::cpu13.inst       2839104                       # Number of bytes read from this memory
system.mem_ctrls.bytes_read::cpu13.data       5037696                       # Number of bytes read from this memory
system.mem_ctrls.bytes_read::cpu14.dtb.walker      1350976                       # Number of bytes read from this memory
system.mem_ctrls.bytes_read::cpu14.itb.walker      1026240                       # Number of bytes read from this memory
system.mem_ctrls.bytes_read::cpu14.inst      17620672                       # Number of bytes read from this memory
system.mem_ctrls.bytes_read::cpu14.data      21364416                       # Number of bytes read from this memory
system.mem_ctrls.bytes_read::cpu15.dtb.walker       100672                       # Number of bytes read from this memory
system.mem_ctrls.bytes_read::cpu15.itb.walker        38400                       # Number of bytes read from this memory
system.mem_ctrls.bytes_read::cpu15.inst       2502528                       # Number of bytes read from this memory
system.mem_ctrls.bytes_read::cpu15.data       6505984                       # Number of bytes read from this memory
system.mem_ctrls.bytes_read::total          441099072                       # Number of bytes read from this memory
system.mem_ctrls.bytes_inst_read::cpu00.inst      5867456                       # Number of instructions bytes read from this memory
system.mem_ctrls.bytes_inst_read::cpu01.inst      1880320                       # Number of instructions bytes read from this memory
system.mem_ctrls.bytes_inst_read::cpu02.inst      4308736                       # Number of instructions bytes read from this memory
system.mem_ctrls.bytes_inst_read::cpu03.inst      2014592                       # Number of instructions bytes read from this memory
system.mem_ctrls.bytes_inst_read::cpu04.inst      3650176                       # Number of instructions bytes read from this memory
system.mem_ctrls.bytes_inst_read::cpu05.inst      1778304                       # Number of instructions bytes read from this memory
system.mem_ctrls.bytes_inst_read::cpu06.inst      2284352                       # Number of instructions bytes read from this memory
system.mem_ctrls.bytes_inst_read::cpu07.inst      1754112                       # Number of instructions bytes read from this memory
system.mem_ctrls.bytes_inst_read::cpu08.inst      2655232                       # Number of instructions bytes read from this memory
system.mem_ctrls.bytes_inst_read::cpu09.inst      2459072                       # Number of instructions bytes read from this memory
system.mem_ctrls.bytes_inst_read::cpu10.inst      4400192                       # Number of instructions bytes read from this memory
system.mem_ctrls.bytes_inst_read::cpu11.inst      2273472                       # Number of instructions bytes read from this memory
system.mem_ctrls.bytes_inst_read::cpu12.inst      1141760                       # Number of instructions bytes read from this memory
system.mem_ctrls.bytes_inst_read::cpu13.inst      2839104                       # Number of instructions bytes read from this memory
system.mem_ctrls.bytes_inst_read::cpu14.inst     17620672                       # Number of instructions bytes read from this memory
system.mem_ctrls.bytes_inst_read::cpu15.inst      2502528                       # Number of instructions bytes read from this memory
system.mem_ctrls.bytes_inst_read::total      59430080                       # Number of instructions bytes read from this memory
system.mem_ctrls.bytes_written::writebacks    204046208                       # Number of bytes written to this memory
system.mem_ctrls.bytes_written::total       204046208                       # Number of bytes written to this memory
system.mem_ctrls.num_reads::cpu00.dtb.walker         2475                       # Number of read requests responded to by this memory
system.mem_ctrls.num_reads::cpu00.itb.walker         1363                       # Number of read requests responded to by this memory
system.mem_ctrls.num_reads::cpu00.inst          91679                       # Number of read requests responded to by this memory
system.mem_ctrls.num_reads::cpu00.data        1256487                       # Number of read requests responded to by this memory
system.mem_ctrls.num_reads::cpu01.dtb.walker         1545                       # Number of read requests responded to by this memory
system.mem_ctrls.num_reads::cpu01.itb.walker          321                       # Number of read requests responded to by this memory
system.mem_ctrls.num_reads::cpu01.inst          29380                       # Number of read requests responded to by this memory
system.mem_ctrls.num_reads::cpu01.data         122360                       # Number of read requests responded to by this memory
system.mem_ctrls.num_reads::cpu02.dtb.walker         2572                       # Number of read requests responded to by this memory
system.mem_ctrls.num_reads::cpu02.itb.walker          940                       # Number of read requests responded to by this memory
system.mem_ctrls.num_reads::cpu02.inst          67324                       # Number of read requests responded to by this memory
system.mem_ctrls.num_reads::cpu02.data         146397                       # Number of read requests responded to by this memory
system.mem_ctrls.num_reads::cpu03.dtb.walker         1064                       # Number of read requests responded to by this memory
system.mem_ctrls.num_reads::cpu03.itb.walker          424                       # Number of read requests responded to by this memory
system.mem_ctrls.num_reads::cpu03.inst          31478                       # Number of read requests responded to by this memory
system.mem_ctrls.num_reads::cpu03.data         115624                       # Number of read requests responded to by this memory
system.mem_ctrls.num_reads::cpu04.dtb.walker         1741                       # Number of read requests responded to by this memory
system.mem_ctrls.num_reads::cpu04.itb.walker          592                       # Number of read requests responded to by this memory
system.mem_ctrls.num_reads::cpu04.inst          57034                       # Number of read requests responded to by this memory
system.mem_ctrls.num_reads::cpu04.data         184557                       # Number of read requests responded to by this memory
system.mem_ctrls.num_reads::cpu05.dtb.walker         1755                       # Number of read requests responded to by this memory
system.mem_ctrls.num_reads::cpu05.itb.walker          621                       # Number of read requests responded to by this memory
system.mem_ctrls.num_reads::cpu05.inst          27786                       # Number of read requests responded to by this memory
system.mem_ctrls.num_reads::cpu05.data         122399                       # Number of read requests responded to by this memory
system.mem_ctrls.num_reads::cpu06.dtb.walker         1281                       # Number of read requests responded to by this memory
system.mem_ctrls.num_reads::cpu06.itb.walker          603                       # Number of read requests responded to by this memory
system.mem_ctrls.num_reads::cpu06.inst          35693                       # Number of read requests responded to by this memory
system.mem_ctrls.num_reads::cpu06.data         127278                       # Number of read requests responded to by this memory
system.mem_ctrls.num_reads::cpu07.dtb.walker         1261                       # Number of read requests responded to by this memory
system.mem_ctrls.num_reads::cpu07.itb.walker          267                       # Number of read requests responded to by this memory
system.mem_ctrls.num_reads::cpu07.inst          27408                       # Number of read requests responded to by this memory
system.mem_ctrls.num_reads::cpu07.data          99352                       # Number of read requests responded to by this memory
system.mem_ctrls.num_reads::cpu08.dtb.walker          944                       # Number of read requests responded to by this memory
system.mem_ctrls.num_reads::cpu08.itb.walker          347                       # Number of read requests responded to by this memory
system.mem_ctrls.num_reads::cpu08.inst          41488                       # Number of read requests responded to by this memory
system.mem_ctrls.num_reads::cpu08.data         107808                       # Number of read requests responded to by this memory
system.mem_ctrls.num_reads::cpu09.dtb.walker         1009                       # Number of read requests responded to by this memory
system.mem_ctrls.num_reads::cpu09.itb.walker          472                       # Number of read requests responded to by this memory
system.mem_ctrls.num_reads::cpu09.inst          38423                       # Number of read requests responded to by this memory
system.mem_ctrls.num_reads::cpu09.data         115339                       # Number of read requests responded to by this memory
system.mem_ctrls.num_reads::cpu10.dtb.walker        51843                       # Number of read requests responded to by this memory
system.mem_ctrls.num_reads::cpu10.itb.walker         1443                       # Number of read requests responded to by this memory
system.mem_ctrls.num_reads::cpu10.inst          68753                       # Number of read requests responded to by this memory
system.mem_ctrls.num_reads::cpu10.data        2744390                       # Number of read requests responded to by this memory
system.mem_ctrls.num_reads::cpu11.dtb.walker         1047                       # Number of read requests responded to by this memory
system.mem_ctrls.num_reads::cpu11.itb.walker          466                       # Number of read requests responded to by this memory
system.mem_ctrls.num_reads::cpu11.inst          35523                       # Number of read requests responded to by this memory
system.mem_ctrls.num_reads::cpu11.data         100572                       # Number of read requests responded to by this memory
system.mem_ctrls.num_reads::cpu12.dtb.walker          721                       # Number of read requests responded to by this memory
system.mem_ctrls.num_reads::cpu12.itb.walker          318                       # Number of read requests responded to by this memory
system.mem_ctrls.num_reads::cpu12.inst          17840                       # Number of read requests responded to by this memory
system.mem_ctrls.num_reads::cpu12.data          87752                       # Number of read requests responded to by this memory
system.mem_ctrls.num_reads::cpu13.dtb.walker         1759                       # Number of read requests responded to by this memory
system.mem_ctrls.num_reads::cpu13.itb.walker          563                       # Number of read requests responded to by this memory
system.mem_ctrls.num_reads::cpu13.inst          44361                       # Number of read requests responded to by this memory
system.mem_ctrls.num_reads::cpu13.data          78714                       # Number of read requests responded to by this memory
system.mem_ctrls.num_reads::cpu14.dtb.walker        21109                       # Number of read requests responded to by this memory
system.mem_ctrls.num_reads::cpu14.itb.walker        16035                       # Number of read requests responded to by this memory
system.mem_ctrls.num_reads::cpu14.inst         275323                       # Number of read requests responded to by this memory
system.mem_ctrls.num_reads::cpu14.data         333819                       # Number of read requests responded to by this memory
system.mem_ctrls.num_reads::cpu15.dtb.walker         1573                       # Number of read requests responded to by this memory
system.mem_ctrls.num_reads::cpu15.itb.walker          600                       # Number of read requests responded to by this memory
system.mem_ctrls.num_reads::cpu15.inst          39102                       # Number of read requests responded to by this memory
system.mem_ctrls.num_reads::cpu15.data         101656                       # Number of read requests responded to by this memory
system.mem_ctrls.num_reads::total             6892173                       # Number of read requests responded to by this memory
system.mem_ctrls.num_writes::writebacks       3188222                       # Number of write requests responded to by this memory
system.mem_ctrls.num_writes::total            3188222                       # Number of write requests responded to by this memory
system.mem_ctrls.bw_read::cpu00.dtb.walker           29                       # Total read bandwidth from this memory (bytes/s)
system.mem_ctrls.bw_read::cpu00.itb.walker           16                       # Total read bandwidth from this memory (bytes/s)
system.mem_ctrls.bw_read::cpu00.inst             1078                       # Total read bandwidth from this memory (bytes/s)
system.mem_ctrls.bw_read::cpu00.data            14772                       # Total read bandwidth from this memory (bytes/s)
system.mem_ctrls.bw_read::cpu01.dtb.walker           18                       # Total read bandwidth from this memory (bytes/s)
system.mem_ctrls.bw_read::cpu01.itb.walker            4                       # Total read bandwidth from this memory (bytes/s)
system.mem_ctrls.bw_read::cpu01.inst              345                       # Total read bandwidth from this memory (bytes/s)
system.mem_ctrls.bw_read::cpu01.data             1439                       # Total read bandwidth from this memory (bytes/s)
system.mem_ctrls.bw_read::cpu02.dtb.walker           30                       # Total read bandwidth from this memory (bytes/s)
system.mem_ctrls.bw_read::cpu02.itb.walker           11                       # Total read bandwidth from this memory (bytes/s)
system.mem_ctrls.bw_read::cpu02.inst              792                       # Total read bandwidth from this memory (bytes/s)
system.mem_ctrls.bw_read::cpu02.data             1721                       # Total read bandwidth from this memory (bytes/s)
system.mem_ctrls.bw_read::cpu03.dtb.walker           13                       # Total read bandwidth from this memory (bytes/s)
system.mem_ctrls.bw_read::cpu03.itb.walker            5                       # Total read bandwidth from this memory (bytes/s)
system.mem_ctrls.bw_read::cpu03.inst              370                       # Total read bandwidth from this memory (bytes/s)
system.mem_ctrls.bw_read::cpu03.data             1359                       # Total read bandwidth from this memory (bytes/s)
system.mem_ctrls.bw_read::cpu04.dtb.walker           20                       # Total read bandwidth from this memory (bytes/s)
system.mem_ctrls.bw_read::cpu04.itb.walker            7                       # Total read bandwidth from this memory (bytes/s)
system.mem_ctrls.bw_read::cpu04.inst              671                       # Total read bandwidth from this memory (bytes/s)
system.mem_ctrls.bw_read::cpu04.data             2170                       # Total read bandwidth from this memory (bytes/s)
system.mem_ctrls.bw_read::cpu05.dtb.walker           21                       # Total read bandwidth from this memory (bytes/s)
system.mem_ctrls.bw_read::cpu05.itb.walker            7                       # Total read bandwidth from this memory (bytes/s)
system.mem_ctrls.bw_read::cpu05.inst              327                       # Total read bandwidth from this memory (bytes/s)
system.mem_ctrls.bw_read::cpu05.data             1439                       # Total read bandwidth from this memory (bytes/s)
system.mem_ctrls.bw_read::cpu06.dtb.walker           15                       # Total read bandwidth from this memory (bytes/s)
system.mem_ctrls.bw_read::cpu06.itb.walker            7                       # Total read bandwidth from this memory (bytes/s)
system.mem_ctrls.bw_read::cpu06.inst              420                       # Total read bandwidth from this memory (bytes/s)
system.mem_ctrls.bw_read::cpu06.data             1496                       # Total read bandwidth from this memory (bytes/s)
system.mem_ctrls.bw_read::cpu07.dtb.walker           15                       # Total read bandwidth from this memory (bytes/s)
system.mem_ctrls.bw_read::cpu07.itb.walker            3                       # Total read bandwidth from this memory (bytes/s)
system.mem_ctrls.bw_read::cpu07.inst              322                       # Total read bandwidth from this memory (bytes/s)
system.mem_ctrls.bw_read::cpu07.data             1168                       # Total read bandwidth from this memory (bytes/s)
system.mem_ctrls.bw_read::cpu08.dtb.walker           11                       # Total read bandwidth from this memory (bytes/s)
system.mem_ctrls.bw_read::cpu08.itb.walker            4                       # Total read bandwidth from this memory (bytes/s)
system.mem_ctrls.bw_read::cpu08.inst              488                       # Total read bandwidth from this memory (bytes/s)
system.mem_ctrls.bw_read::cpu08.data             1267                       # Total read bandwidth from this memory (bytes/s)
system.mem_ctrls.bw_read::cpu09.dtb.walker           12                       # Total read bandwidth from this memory (bytes/s)
system.mem_ctrls.bw_read::cpu09.itb.walker            6                       # Total read bandwidth from this memory (bytes/s)
system.mem_ctrls.bw_read::cpu09.inst              452                       # Total read bandwidth from this memory (bytes/s)
system.mem_ctrls.bw_read::cpu09.data             1356                       # Total read bandwidth from this memory (bytes/s)
system.mem_ctrls.bw_read::cpu10.dtb.walker          610                       # Total read bandwidth from this memory (bytes/s)
system.mem_ctrls.bw_read::cpu10.itb.walker           17                       # Total read bandwidth from this memory (bytes/s)
system.mem_ctrls.bw_read::cpu10.inst              808                       # Total read bandwidth from this memory (bytes/s)
system.mem_ctrls.bw_read::cpu10.data            32265                       # Total read bandwidth from this memory (bytes/s)
system.mem_ctrls.bw_read::cpu11.dtb.walker           12                       # Total read bandwidth from this memory (bytes/s)
system.mem_ctrls.bw_read::cpu11.itb.walker            5                       # Total read bandwidth from this memory (bytes/s)
system.mem_ctrls.bw_read::cpu11.inst              418                       # Total read bandwidth from this memory (bytes/s)
system.mem_ctrls.bw_read::cpu11.data             1182                       # Total read bandwidth from this memory (bytes/s)
system.mem_ctrls.bw_read::cpu12.dtb.walker            8                       # Total read bandwidth from this memory (bytes/s)
system.mem_ctrls.bw_read::cpu12.itb.walker            4                       # Total read bandwidth from this memory (bytes/s)
system.mem_ctrls.bw_read::cpu12.inst              210                       # Total read bandwidth from this memory (bytes/s)
system.mem_ctrls.bw_read::cpu12.data             1032                       # Total read bandwidth from this memory (bytes/s)
system.mem_ctrls.bw_read::cpu13.dtb.walker           21                       # Total read bandwidth from this memory (bytes/s)
system.mem_ctrls.bw_read::cpu13.itb.walker            7                       # Total read bandwidth from this memory (bytes/s)
system.mem_ctrls.bw_read::cpu13.inst              522                       # Total read bandwidth from this memory (bytes/s)
system.mem_ctrls.bw_read::cpu13.data              925                       # Total read bandwidth from this memory (bytes/s)
system.mem_ctrls.bw_read::cpu14.dtb.walker          248                       # Total read bandwidth from this memory (bytes/s)
system.mem_ctrls.bw_read::cpu14.itb.walker          189                       # Total read bandwidth from this memory (bytes/s)
system.mem_ctrls.bw_read::cpu14.inst             3237                       # Total read bandwidth from this memory (bytes/s)
system.mem_ctrls.bw_read::cpu14.data             3925                       # Total read bandwidth from this memory (bytes/s)
system.mem_ctrls.bw_read::cpu15.dtb.walker           18                       # Total read bandwidth from this memory (bytes/s)
system.mem_ctrls.bw_read::cpu15.itb.walker            7                       # Total read bandwidth from this memory (bytes/s)
system.mem_ctrls.bw_read::cpu15.inst              460                       # Total read bandwidth from this memory (bytes/s)
system.mem_ctrls.bw_read::cpu15.data             1195                       # Total read bandwidth from this memory (bytes/s)
system.mem_ctrls.bw_read::total                 81029                       # Total read bandwidth from this memory (bytes/s)
system.mem_ctrls.bw_inst_read::cpu00.inst         1078                       # Instruction read bandwidth from this memory (bytes/s)
system.mem_ctrls.bw_inst_read::cpu01.inst          345                       # Instruction read bandwidth from this memory (bytes/s)
system.mem_ctrls.bw_inst_read::cpu02.inst          792                       # Instruction read bandwidth from this memory (bytes/s)
system.mem_ctrls.bw_inst_read::cpu03.inst          370                       # Instruction read bandwidth from this memory (bytes/s)
system.mem_ctrls.bw_inst_read::cpu04.inst          671                       # Instruction read bandwidth from this memory (bytes/s)
system.mem_ctrls.bw_inst_read::cpu05.inst          327                       # Instruction read bandwidth from this memory (bytes/s)
system.mem_ctrls.bw_inst_read::cpu06.inst          420                       # Instruction read bandwidth from this memory (bytes/s)
system.mem_ctrls.bw_inst_read::cpu07.inst          322                       # Instruction read bandwidth from this memory (bytes/s)
system.mem_ctrls.bw_inst_read::cpu08.inst          488                       # Instruction read bandwidth from this memory (bytes/s)
system.mem_ctrls.bw_inst_read::cpu09.inst          452                       # Instruction read bandwidth from this memory (bytes/s)
system.mem_ctrls.bw_inst_read::cpu10.inst          808                       # Instruction read bandwidth from this memory (bytes/s)
system.mem_ctrls.bw_inst_read::cpu11.inst          418                       # Instruction read bandwidth from this memory (bytes/s)
system.mem_ctrls.bw_inst_read::cpu12.inst          210                       # Instruction read bandwidth from this memory (bytes/s)
system.mem_ctrls.bw_inst_read::cpu13.inst          522                       # Instruction read bandwidth from this memory (bytes/s)
system.mem_ctrls.bw_inst_read::cpu14.inst         3237                       # Instruction read bandwidth from this memory (bytes/s)
system.mem_ctrls.bw_inst_read::cpu15.inst          460                       # Instruction read bandwidth from this memory (bytes/s)
system.mem_ctrls.bw_inst_read::total            10917                       # Instruction read bandwidth from this memory (bytes/s)
system.mem_ctrls.bw_write::writebacks           37483                       # Write bandwidth from this memory (bytes/s)
system.mem_ctrls.bw_write::total                37483                       # Write bandwidth from this memory (bytes/s)
system.mem_ctrls.bw_total::writebacks           37483                       # Total bandwidth to/from this memory (bytes/s)
system.mem_ctrls.bw_total::cpu00.dtb.walker           29                       # Total bandwidth to/from this memory (bytes/s)
system.mem_ctrls.bw_total::cpu00.itb.walker           16                       # Total bandwidth to/from this memory (bytes/s)
system.mem_ctrls.bw_total::cpu00.inst            1078                       # Total bandwidth to/from this memory (bytes/s)
system.mem_ctrls.bw_total::cpu00.data           14772                       # Total bandwidth to/from this memory (bytes/s)
system.mem_ctrls.bw_total::cpu01.dtb.walker           18                       # Total bandwidth to/from this memory (bytes/s)
system.mem_ctrls.bw_total::cpu01.itb.walker            4                       # Total bandwidth to/from this memory (bytes/s)
system.mem_ctrls.bw_total::cpu01.inst             345                       # Total bandwidth to/from this memory (bytes/s)
system.mem_ctrls.bw_total::cpu01.data            1439                       # Total bandwidth to/from this memory (bytes/s)
system.mem_ctrls.bw_total::cpu02.dtb.walker           30                       # Total bandwidth to/from this memory (bytes/s)
system.mem_ctrls.bw_total::cpu02.itb.walker           11                       # Total bandwidth to/from this memory (bytes/s)
system.mem_ctrls.bw_total::cpu02.inst             792                       # Total bandwidth to/from this memory (bytes/s)
system.mem_ctrls.bw_total::cpu02.data            1721                       # Total bandwidth to/from this memory (bytes/s)
system.mem_ctrls.bw_total::cpu03.dtb.walker           13                       # Total bandwidth to/from this memory (bytes/s)
system.mem_ctrls.bw_total::cpu03.itb.walker            5                       # Total bandwidth to/from this memory (bytes/s)
system.mem_ctrls.bw_total::cpu03.inst             370                       # Total bandwidth to/from this memory (bytes/s)
system.mem_ctrls.bw_total::cpu03.data            1359                       # Total bandwidth to/from this memory (bytes/s)
system.mem_ctrls.bw_total::cpu04.dtb.walker           20                       # Total bandwidth to/from this memory (bytes/s)
system.mem_ctrls.bw_total::cpu04.itb.walker            7                       # Total bandwidth to/from this memory (bytes/s)
system.mem_ctrls.bw_total::cpu04.inst             671                       # Total bandwidth to/from this memory (bytes/s)
system.mem_ctrls.bw_total::cpu04.data            2170                       # Total bandwidth to/from this memory (bytes/s)
system.mem_ctrls.bw_total::cpu05.dtb.walker           21                       # Total bandwidth to/from this memory (bytes/s)
system.mem_ctrls.bw_total::cpu05.itb.walker            7                       # Total bandwidth to/from this memory (bytes/s)
system.mem_ctrls.bw_total::cpu05.inst             327                       # Total bandwidth to/from this memory (bytes/s)
system.mem_ctrls.bw_total::cpu05.data            1439                       # Total bandwidth to/from this memory (bytes/s)
system.mem_ctrls.bw_total::cpu06.dtb.walker           15                       # Total bandwidth to/from this memory (bytes/s)
system.mem_ctrls.bw_total::cpu06.itb.walker            7                       # Total bandwidth to/from this memory (bytes/s)
system.mem_ctrls.bw_total::cpu06.inst             420                       # Total bandwidth to/from this memory (bytes/s)
system.mem_ctrls.bw_total::cpu06.data            1496                       # Total bandwidth to/from this memory (bytes/s)
system.mem_ctrls.bw_total::cpu07.dtb.walker           15                       # Total bandwidth to/from this memory (bytes/s)
system.mem_ctrls.bw_total::cpu07.itb.walker            3                       # Total bandwidth to/from this memory (bytes/s)
system.mem_ctrls.bw_total::cpu07.inst             322                       # Total bandwidth to/from this memory (bytes/s)
system.mem_ctrls.bw_total::cpu07.data            1168                       # Total bandwidth to/from this memory (bytes/s)
system.mem_ctrls.bw_total::cpu08.dtb.walker           11                       # Total bandwidth to/from this memory (bytes/s)
system.mem_ctrls.bw_total::cpu08.itb.walker            4                       # Total bandwidth to/from this memory (bytes/s)
system.mem_ctrls.bw_total::cpu08.inst             488                       # Total bandwidth to/from this memory (bytes/s)
system.mem_ctrls.bw_total::cpu08.data            1267                       # Total bandwidth to/from this memory (bytes/s)
system.mem_ctrls.bw_total::cpu09.dtb.walker           12                       # Total bandwidth to/from this memory (bytes/s)
system.mem_ctrls.bw_total::cpu09.itb.walker            6                       # Total bandwidth to/from this memory (bytes/s)
system.mem_ctrls.bw_total::cpu09.inst             452                       # Total bandwidth to/from this memory (bytes/s)
system.mem_ctrls.bw_total::cpu09.data            1356                       # Total bandwidth to/from this memory (bytes/s)
system.mem_ctrls.bw_total::cpu10.dtb.walker          610                       # Total bandwidth to/from this memory (bytes/s)
system.mem_ctrls.bw_total::cpu10.itb.walker           17                       # Total bandwidth to/from this memory (bytes/s)
system.mem_ctrls.bw_total::cpu10.inst             808                       # Total bandwidth to/from this memory (bytes/s)
system.mem_ctrls.bw_total::cpu10.data           32265                       # Total bandwidth to/from this memory (bytes/s)
system.mem_ctrls.bw_total::cpu11.dtb.walker           12                       # Total bandwidth to/from this memory (bytes/s)
system.mem_ctrls.bw_total::cpu11.itb.walker            5                       # Total bandwidth to/from this memory (bytes/s)
system.mem_ctrls.bw_total::cpu11.inst             418                       # Total bandwidth to/from this memory (bytes/s)
system.mem_ctrls.bw_total::cpu11.data            1182                       # Total bandwidth to/from this memory (bytes/s)
system.mem_ctrls.bw_total::cpu12.dtb.walker            8                       # Total bandwidth to/from this memory (bytes/s)
system.mem_ctrls.bw_total::cpu12.itb.walker            4                       # Total bandwidth to/from this memory (bytes/s)
system.mem_ctrls.bw_total::cpu12.inst             210                       # Total bandwidth to/from this memory (bytes/s)
system.mem_ctrls.bw_total::cpu12.data            1032                       # Total bandwidth to/from this memory (bytes/s)
system.mem_ctrls.bw_total::cpu13.dtb.walker           21                       # Total bandwidth to/from this memory (bytes/s)
system.mem_ctrls.bw_total::cpu13.itb.walker            7                       # Total bandwidth to/from this memory (bytes/s)
system.mem_ctrls.bw_total::cpu13.inst             522                       # Total bandwidth to/from this memory (bytes/s)
system.mem_ctrls.bw_total::cpu13.data             925                       # Total bandwidth to/from this memory (bytes/s)
system.mem_ctrls.bw_total::cpu14.dtb.walker          248                       # Total bandwidth to/from this memory (bytes/s)
system.mem_ctrls.bw_total::cpu14.itb.walker          189                       # Total bandwidth to/from this memory (bytes/s)
system.mem_ctrls.bw_total::cpu14.inst            3237                       # Total bandwidth to/from this memory (bytes/s)
system.mem_ctrls.bw_total::cpu14.data            3925                       # Total bandwidth to/from this memory (bytes/s)
system.mem_ctrls.bw_total::cpu15.dtb.walker           18                       # Total bandwidth to/from this memory (bytes/s)
system.mem_ctrls.bw_total::cpu15.itb.walker            7                       # Total bandwidth to/from this memory (bytes/s)
system.mem_ctrls.bw_total::cpu15.inst             460                       # Total bandwidth to/from this memory (bytes/s)
system.mem_ctrls.bw_total::cpu15.data            1195                       # Total bandwidth to/from this memory (bytes/s)
system.mem_ctrls.bw_total::total               118512                       # Total bandwidth to/from this memory (bytes/s)
system.mem_ctrls.readReqs                           0                       # Number of read requests accepted
system.mem_ctrls.writeReqs                          0                       # Number of write requests accepted
system.mem_ctrls.readBursts                         0                       # Number of DRAM read bursts, including those serviced by the write queue
system.mem_ctrls.writeBursts                        0                       # Number of DRAM write bursts, including those merged in the write queue
system.mem_ctrls.bytesReadDRAM                      0                       # Total number of bytes read from DRAM
system.mem_ctrls.bytesReadWrQ                       0                       # Total number of bytes read from write queue
system.mem_ctrls.bytesWritten                       0                       # Total number of bytes written to DRAM
system.mem_ctrls.bytesReadSys                       0                       # Total read bytes from the system interface side
system.mem_ctrls.bytesWrittenSys                    0                       # Total written bytes from the system interface side
system.mem_ctrls.servicedByWrQ                      0                       # Number of DRAM read bursts serviced by the write queue
system.mem_ctrls.mergedWrBursts                     0                       # Number of DRAM write bursts merged with an existing one
system.mem_ctrls.neitherReadNorWriteReqs            0                       # Number of requests that are neither read nor write
system.mem_ctrls.perBankRdBursts::0                 0                       # Per bank write bursts
system.mem_ctrls.perBankRdBursts::1                 0                       # Per bank write bursts
system.mem_ctrls.perBankRdBursts::2                 0                       # Per bank write bursts
system.mem_ctrls.perBankRdBursts::3                 0                       # Per bank write bursts
system.mem_ctrls.perBankRdBursts::4                 0                       # Per bank write bursts
system.mem_ctrls.perBankRdBursts::5                 0                       # Per bank write bursts
system.mem_ctrls.perBankRdBursts::6                 0                       # Per bank write bursts
system.mem_ctrls.perBankRdBursts::7                 0                       # Per bank write bursts
system.mem_ctrls.perBankRdBursts::8                 0                       # Per bank write bursts
system.mem_ctrls.perBankRdBursts::9                 0                       # Per bank write bursts
system.mem_ctrls.perBankRdBursts::10                0                       # Per bank write bursts
system.mem_ctrls.perBankRdBursts::11                0                       # Per bank write bursts
system.mem_ctrls.perBankRdBursts::12                0                       # Per bank write bursts
system.mem_ctrls.perBankRdBursts::13                0                       # Per bank write bursts
system.mem_ctrls.perBankRdBursts::14                0                       # Per bank write bursts
system.mem_ctrls.perBankRdBursts::15                0                       # Per bank write bursts
system.mem_ctrls.perBankRdBursts::16                0                       # Per bank write bursts
system.mem_ctrls.perBankRdBursts::17                0                       # Per bank write bursts
system.mem_ctrls.perBankRdBursts::18                0                       # Per bank write bursts
system.mem_ctrls.perBankRdBursts::19                0                       # Per bank write bursts
system.mem_ctrls.perBankRdBursts::20                0                       # Per bank write bursts
system.mem_ctrls.perBankRdBursts::21                0                       # Per bank write bursts
system.mem_ctrls.perBankRdBursts::22                0                       # Per bank write bursts
system.mem_ctrls.perBankRdBursts::23                0                       # Per bank write bursts
system.mem_ctrls.perBankRdBursts::24                0                       # Per bank write bursts
system.mem_ctrls.perBankRdBursts::25                0                       # Per bank write bursts
system.mem_ctrls.perBankRdBursts::26                0                       # Per bank write bursts
system.mem_ctrls.perBankRdBursts::27                0                       # Per bank write bursts
system.mem_ctrls.perBankRdBursts::28                0                       # Per bank write bursts
system.mem_ctrls.perBankRdBursts::29                0                       # Per bank write bursts
system.mem_ctrls.perBankRdBursts::30                0                       # Per bank write bursts
system.mem_ctrls.perBankRdBursts::31                0                       # Per bank write bursts
system.mem_ctrls.perBankWrBursts::0                 0                       # Per bank write bursts
system.mem_ctrls.perBankWrBursts::1                 0                       # Per bank write bursts
system.mem_ctrls.perBankWrBursts::2                 0                       # Per bank write bursts
system.mem_ctrls.perBankWrBursts::3                 0                       # Per bank write bursts
system.mem_ctrls.perBankWrBursts::4                 0                       # Per bank write bursts
system.mem_ctrls.perBankWrBursts::5                 0                       # Per bank write bursts
system.mem_ctrls.perBankWrBursts::6                 0                       # Per bank write bursts
system.mem_ctrls.perBankWrBursts::7                 0                       # Per bank write bursts
system.mem_ctrls.perBankWrBursts::8                 0                       # Per bank write bursts
system.mem_ctrls.perBankWrBursts::9                 0                       # Per bank write bursts
system.mem_ctrls.perBankWrBursts::10                0                       # Per bank write bursts
system.mem_ctrls.perBankWrBursts::11                0                       # Per bank write bursts
system.mem_ctrls.perBankWrBursts::12                0                       # Per bank write bursts
system.mem_ctrls.perBankWrBursts::13                0                       # Per bank write bursts
system.mem_ctrls.perBankWrBursts::14                0                       # Per bank write bursts
system.mem_ctrls.perBankWrBursts::15                0                       # Per bank write bursts
system.mem_ctrls.perBankWrBursts::16                0                       # Per bank write bursts
system.mem_ctrls.perBankWrBursts::17                0                       # Per bank write bursts
system.mem_ctrls.perBankWrBursts::18                0                       # Per bank write bursts
system.mem_ctrls.perBankWrBursts::19                0                       # Per bank write bursts
system.mem_ctrls.perBankWrBursts::20                0                       # Per bank write bursts
system.mem_ctrls.perBankWrBursts::21                0                       # Per bank write bursts
system.mem_ctrls.perBankWrBursts::22                0                       # Per bank write bursts
system.mem_ctrls.perBankWrBursts::23                0                       # Per bank write bursts
system.mem_ctrls.perBankWrBursts::24                0                       # Per bank write bursts
system.mem_ctrls.perBankWrBursts::25                0                       # Per bank write bursts
system.mem_ctrls.perBankWrBursts::26                0                       # Per bank write bursts
system.mem_ctrls.perBankWrBursts::27                0                       # Per bank write bursts
system.mem_ctrls.perBankWrBursts::28                0                       # Per bank write bursts
system.mem_ctrls.perBankWrBursts::29                0                       # Per bank write bursts
system.mem_ctrls.perBankWrBursts::30                0                       # Per bank write bursts
system.mem_ctrls.perBankWrBursts::31                0                       # Per bank write bursts
system.mem_ctrls.numRdRetry                         0                       # Number of times read queue was full causing retry
system.mem_ctrls.numWrRetry                         0                       # Number of times write queue was full causing retry
system.mem_ctrls.totGap                             0                       # Total gap between requests
system.mem_ctrls.readPktSize::0                     0                       # Read request sizes (log2)
system.mem_ctrls.readPktSize::1                     0                       # Read request sizes (log2)
system.mem_ctrls.readPktSize::2                     0                       # Read request sizes (log2)
system.mem_ctrls.readPktSize::3                     0                       # Read request sizes (log2)
system.mem_ctrls.readPktSize::4                     0                       # Read request sizes (log2)
system.mem_ctrls.readPktSize::5                     0                       # Read request sizes (log2)
system.mem_ctrls.readPktSize::6                     0                       # Read request sizes (log2)
system.mem_ctrls.writePktSize::0                    0                       # Write request sizes (log2)
system.mem_ctrls.writePktSize::1                    0                       # Write request sizes (log2)
system.mem_ctrls.writePktSize::2                    0                       # Write request sizes (log2)
system.mem_ctrls.writePktSize::3                    0                       # Write request sizes (log2)
system.mem_ctrls.writePktSize::4                    0                       # Write request sizes (log2)
system.mem_ctrls.writePktSize::5                    0                       # Write request sizes (log2)
system.mem_ctrls.writePktSize::6                    0                       # Write request sizes (log2)
system.mem_ctrls.rdQLenPdf::0                       0                       # What read queue length does an incoming req see
system.mem_ctrls.rdQLenPdf::1                       0                       # What read queue length does an incoming req see
system.mem_ctrls.rdQLenPdf::2                       0                       # What read queue length does an incoming req see
system.mem_ctrls.rdQLenPdf::3                       0                       # What read queue length does an incoming req see
system.mem_ctrls.rdQLenPdf::4                       0                       # What read queue length does an incoming req see
system.mem_ctrls.rdQLenPdf::5                       0                       # What read queue length does an incoming req see
system.mem_ctrls.rdQLenPdf::6                       0                       # What read queue length does an incoming req see
system.mem_ctrls.rdQLenPdf::7                       0                       # What read queue length does an incoming req see
system.mem_ctrls.rdQLenPdf::8                       0                       # What read queue length does an incoming req see
system.mem_ctrls.rdQLenPdf::9                       0                       # What read queue length does an incoming req see
system.mem_ctrls.rdQLenPdf::10                      0                       # What read queue length does an incoming req see
system.mem_ctrls.rdQLenPdf::11                      0                       # What read queue length does an incoming req see
system.mem_ctrls.rdQLenPdf::12                      0                       # What read queue length does an incoming req see
system.mem_ctrls.rdQLenPdf::13                      0                       # What read queue length does an incoming req see
system.mem_ctrls.rdQLenPdf::14                      0                       # What read queue length does an incoming req see
system.mem_ctrls.rdQLenPdf::15                      0                       # What read queue length does an incoming req see
system.mem_ctrls.rdQLenPdf::16                      0                       # What read queue length does an incoming req see
system.mem_ctrls.rdQLenPdf::17                      0                       # What read queue length does an incoming req see
system.mem_ctrls.rdQLenPdf::18                      0                       # What read queue length does an incoming req see
system.mem_ctrls.rdQLenPdf::19                      0                       # What read queue length does an incoming req see
system.mem_ctrls.rdQLenPdf::20                      0                       # What read queue length does an incoming req see
system.mem_ctrls.rdQLenPdf::21                      0                       # What read queue length does an incoming req see
system.mem_ctrls.rdQLenPdf::22                      0                       # What read queue length does an incoming req see
system.mem_ctrls.rdQLenPdf::23                      0                       # What read queue length does an incoming req see
system.mem_ctrls.rdQLenPdf::24                      0                       # What read queue length does an incoming req see
system.mem_ctrls.rdQLenPdf::25                      0                       # What read queue length does an incoming req see
system.mem_ctrls.rdQLenPdf::26                      0                       # What read queue length does an incoming req see
system.mem_ctrls.rdQLenPdf::27                      0                       # What read queue length does an incoming req see
system.mem_ctrls.rdQLenPdf::28                      0                       # What read queue length does an incoming req see
system.mem_ctrls.rdQLenPdf::29                      0                       # What read queue length does an incoming req see
system.mem_ctrls.rdQLenPdf::30                      0                       # What read queue length does an incoming req see
system.mem_ctrls.rdQLenPdf::31                      0                       # What read queue length does an incoming req see
system.mem_ctrls.rdQLenPdf::32                      0                       # What read queue length does an incoming req see
system.mem_ctrls.rdQLenPdf::33                      0                       # What read queue length does an incoming req see
system.mem_ctrls.rdQLenPdf::34                      0                       # What read queue length does an incoming req see
system.mem_ctrls.rdQLenPdf::35                      0                       # What read queue length does an incoming req see
system.mem_ctrls.rdQLenPdf::36                      0                       # What read queue length does an incoming req see
system.mem_ctrls.rdQLenPdf::37                      0                       # What read queue length does an incoming req see
system.mem_ctrls.rdQLenPdf::38                      0                       # What read queue length does an incoming req see
system.mem_ctrls.rdQLenPdf::39                      0                       # What read queue length does an incoming req see
system.mem_ctrls.rdQLenPdf::40                      0                       # What read queue length does an incoming req see
system.mem_ctrls.rdQLenPdf::41                      0                       # What read queue length does an incoming req see
system.mem_ctrls.rdQLenPdf::42                      0                       # What read queue length does an incoming req see
system.mem_ctrls.rdQLenPdf::43                      0                       # What read queue length does an incoming req see
system.mem_ctrls.rdQLenPdf::44                      0                       # What read queue length does an incoming req see
system.mem_ctrls.rdQLenPdf::45                      0                       # What read queue length does an incoming req see
system.mem_ctrls.rdQLenPdf::46                      0                       # What read queue length does an incoming req see
system.mem_ctrls.rdQLenPdf::47                      0                       # What read queue length does an incoming req see
system.mem_ctrls.rdQLenPdf::48                      0                       # What read queue length does an incoming req see
system.mem_ctrls.rdQLenPdf::49                      0                       # What read queue length does an incoming req see
system.mem_ctrls.rdQLenPdf::50                      0                       # What read queue length does an incoming req see
system.mem_ctrls.rdQLenPdf::51                      0                       # What read queue length does an incoming req see
system.mem_ctrls.rdQLenPdf::52                      0                       # What read queue length does an incoming req see
system.mem_ctrls.rdQLenPdf::53                      0                       # What read queue length does an incoming req see
system.mem_ctrls.rdQLenPdf::54                      0                       # What read queue length does an incoming req see
system.mem_ctrls.rdQLenPdf::55                      0                       # What read queue length does an incoming req see
system.mem_ctrls.rdQLenPdf::56                      0                       # What read queue length does an incoming req see
system.mem_ctrls.rdQLenPdf::57                      0                       # What read queue length does an incoming req see
system.mem_ctrls.rdQLenPdf::58                      0                       # What read queue length does an incoming req see
system.mem_ctrls.rdQLenPdf::59                      0                       # What read queue length does an incoming req see
system.mem_ctrls.rdQLenPdf::60                      0                       # What read queue length does an incoming req see
system.mem_ctrls.rdQLenPdf::61                      0                       # What read queue length does an incoming req see
system.mem_ctrls.rdQLenPdf::62                      0                       # What read queue length does an incoming req see
system.mem_ctrls.rdQLenPdf::63                      0                       # What read queue length does an incoming req see
system.mem_ctrls.wrQLenPdf::0                       0                       # What write queue length does an incoming req see
system.mem_ctrls.wrQLenPdf::1                       0                       # What write queue length does an incoming req see
system.mem_ctrls.wrQLenPdf::2                       0                       # What write queue length does an incoming req see
system.mem_ctrls.wrQLenPdf::3                       0                       # What write queue length does an incoming req see
system.mem_ctrls.wrQLenPdf::4                       0                       # What write queue length does an incoming req see
system.mem_ctrls.wrQLenPdf::5                       0                       # What write queue length does an incoming req see
system.mem_ctrls.wrQLenPdf::6                       0                       # What write queue length does an incoming req see
system.mem_ctrls.wrQLenPdf::7                       0                       # What write queue length does an incoming req see
system.mem_ctrls.wrQLenPdf::8                       0                       # What write queue length does an incoming req see
system.mem_ctrls.wrQLenPdf::9                       0                       # What write queue length does an incoming req see
system.mem_ctrls.wrQLenPdf::10                      0                       # What write queue length does an incoming req see
system.mem_ctrls.wrQLenPdf::11                      0                       # What write queue length does an incoming req see
system.mem_ctrls.wrQLenPdf::12                      0                       # What write queue length does an incoming req see
system.mem_ctrls.wrQLenPdf::13                      0                       # What write queue length does an incoming req see
system.mem_ctrls.wrQLenPdf::14                      0                       # What write queue length does an incoming req see
system.mem_ctrls.wrQLenPdf::15                      0                       # What write queue length does an incoming req see
system.mem_ctrls.wrQLenPdf::16                      0                       # What write queue length does an incoming req see
system.mem_ctrls.wrQLenPdf::17                      0                       # What write queue length does an incoming req see
system.mem_ctrls.wrQLenPdf::18                      0                       # What write queue length does an incoming req see
system.mem_ctrls.wrQLenPdf::19                      0                       # What write queue length does an incoming req see
system.mem_ctrls.wrQLenPdf::20                      0                       # What write queue length does an incoming req see
system.mem_ctrls.wrQLenPdf::21                      0                       # What write queue length does an incoming req see
system.mem_ctrls.wrQLenPdf::22                      0                       # What write queue length does an incoming req see
system.mem_ctrls.wrQLenPdf::23                      0                       # What write queue length does an incoming req see
system.mem_ctrls.wrQLenPdf::24                      0                       # What write queue length does an incoming req see
system.mem_ctrls.wrQLenPdf::25                      0                       # What write queue length does an incoming req see
system.mem_ctrls.wrQLenPdf::26                      0                       # What write queue length does an incoming req see
system.mem_ctrls.wrQLenPdf::27                      0                       # What write queue length does an incoming req see
system.mem_ctrls.wrQLenPdf::28                      0                       # What write queue length does an incoming req see
system.mem_ctrls.wrQLenPdf::29                      0                       # What write queue length does an incoming req see
system.mem_ctrls.wrQLenPdf::30                      0                       # What write queue length does an incoming req see
system.mem_ctrls.wrQLenPdf::31                      0                       # What write queue length does an incoming req see
system.mem_ctrls.wrQLenPdf::32                      0                       # What write queue length does an incoming req see
system.mem_ctrls.wrQLenPdf::33                      0                       # What write queue length does an incoming req see
system.mem_ctrls.wrQLenPdf::34                      0                       # What write queue length does an incoming req see
system.mem_ctrls.wrQLenPdf::35                      0                       # What write queue length does an incoming req see
system.mem_ctrls.wrQLenPdf::36                      0                       # What write queue length does an incoming req see
system.mem_ctrls.wrQLenPdf::37                      0                       # What write queue length does an incoming req see
system.mem_ctrls.wrQLenPdf::38                      0                       # What write queue length does an incoming req see
system.mem_ctrls.wrQLenPdf::39                      0                       # What write queue length does an incoming req see
system.mem_ctrls.wrQLenPdf::40                      0                       # What write queue length does an incoming req see
system.mem_ctrls.wrQLenPdf::41                      0                       # What write queue length does an incoming req see
system.mem_ctrls.wrQLenPdf::42                      0                       # What write queue length does an incoming req see
system.mem_ctrls.wrQLenPdf::43                      0                       # What write queue length does an incoming req see
system.mem_ctrls.wrQLenPdf::44                      0                       # What write queue length does an incoming req see
system.mem_ctrls.wrQLenPdf::45                      0                       # What write queue length does an incoming req see
system.mem_ctrls.wrQLenPdf::46                      0                       # What write queue length does an incoming req see
system.mem_ctrls.wrQLenPdf::47                      0                       # What write queue length does an incoming req see
system.mem_ctrls.wrQLenPdf::48                      0                       # What write queue length does an incoming req see
system.mem_ctrls.wrQLenPdf::49                      0                       # What write queue length does an incoming req see
system.mem_ctrls.wrQLenPdf::50                      0                       # What write queue length does an incoming req see
system.mem_ctrls.wrQLenPdf::51                      0                       # What write queue length does an incoming req see
system.mem_ctrls.wrQLenPdf::52                      0                       # What write queue length does an incoming req see
system.mem_ctrls.wrQLenPdf::53                      0                       # What write queue length does an incoming req see
system.mem_ctrls.wrQLenPdf::54                      0                       # What write queue length does an incoming req see
system.mem_ctrls.wrQLenPdf::55                      0                       # What write queue length does an incoming req see
system.mem_ctrls.wrQLenPdf::56                      0                       # What write queue length does an incoming req see
system.mem_ctrls.wrQLenPdf::57                      0                       # What write queue length does an incoming req see
system.mem_ctrls.wrQLenPdf::58                      0                       # What write queue length does an incoming req see
system.mem_ctrls.wrQLenPdf::59                      0                       # What write queue length does an incoming req see
system.mem_ctrls.wrQLenPdf::60                      0                       # What write queue length does an incoming req see
system.mem_ctrls.wrQLenPdf::61                      0                       # What write queue length does an incoming req see
system.mem_ctrls.wrQLenPdf::62                      0                       # What write queue length does an incoming req see
system.mem_ctrls.wrQLenPdf::63                      0                       # What write queue length does an incoming req see
system.mem_ctrls.wrQLenPdf::64                      0                       # What write queue length does an incoming req see
system.mem_ctrls.wrQLenPdf::65                      0                       # What write queue length does an incoming req see
system.mem_ctrls.wrQLenPdf::66                      0                       # What write queue length does an incoming req see
system.mem_ctrls.wrQLenPdf::67                      0                       # What write queue length does an incoming req see
system.mem_ctrls.wrQLenPdf::68                      0                       # What write queue length does an incoming req see
system.mem_ctrls.wrQLenPdf::69                      0                       # What write queue length does an incoming req see
system.mem_ctrls.wrQLenPdf::70                      0                       # What write queue length does an incoming req see
system.mem_ctrls.wrQLenPdf::71                      0                       # What write queue length does an incoming req see
system.mem_ctrls.wrQLenPdf::72                      0                       # What write queue length does an incoming req see
system.mem_ctrls.wrQLenPdf::73                      0                       # What write queue length does an incoming req see
system.mem_ctrls.wrQLenPdf::74                      0                       # What write queue length does an incoming req see
system.mem_ctrls.wrQLenPdf::75                      0                       # What write queue length does an incoming req see
system.mem_ctrls.wrQLenPdf::76                      0                       # What write queue length does an incoming req see
system.mem_ctrls.wrQLenPdf::77                      0                       # What write queue length does an incoming req see
system.mem_ctrls.wrQLenPdf::78                      0                       # What write queue length does an incoming req see
system.mem_ctrls.wrQLenPdf::79                      0                       # What write queue length does an incoming req see
system.mem_ctrls.wrQLenPdf::80                      0                       # What write queue length does an incoming req see
system.mem_ctrls.wrQLenPdf::81                      0                       # What write queue length does an incoming req see
system.mem_ctrls.wrQLenPdf::82                      0                       # What write queue length does an incoming req see
system.mem_ctrls.wrQLenPdf::83                      0                       # What write queue length does an incoming req see
system.mem_ctrls.wrQLenPdf::84                      0                       # What write queue length does an incoming req see
system.mem_ctrls.wrQLenPdf::85                      0                       # What write queue length does an incoming req see
system.mem_ctrls.wrQLenPdf::86                      0                       # What write queue length does an incoming req see
system.mem_ctrls.wrQLenPdf::87                      0                       # What write queue length does an incoming req see
system.mem_ctrls.wrQLenPdf::88                      0                       # What write queue length does an incoming req see
system.mem_ctrls.wrQLenPdf::89                      0                       # What write queue length does an incoming req see
system.mem_ctrls.wrQLenPdf::90                      0                       # What write queue length does an incoming req see
system.mem_ctrls.wrQLenPdf::91                      0                       # What write queue length does an incoming req see
system.mem_ctrls.wrQLenPdf::92                      0                       # What write queue length does an incoming req see
system.mem_ctrls.wrQLenPdf::93                      0                       # What write queue length does an incoming req see
system.mem_ctrls.wrQLenPdf::94                      0                       # What write queue length does an incoming req see
system.mem_ctrls.wrQLenPdf::95                      0                       # What write queue length does an incoming req see
system.mem_ctrls.wrQLenPdf::96                      0                       # What write queue length does an incoming req see
system.mem_ctrls.wrQLenPdf::97                      0                       # What write queue length does an incoming req see
system.mem_ctrls.wrQLenPdf::98                      0                       # What write queue length does an incoming req see
system.mem_ctrls.wrQLenPdf::99                      0                       # What write queue length does an incoming req see
system.mem_ctrls.wrQLenPdf::100                     0                       # What write queue length does an incoming req see
system.mem_ctrls.wrQLenPdf::101                     0                       # What write queue length does an incoming req see
system.mem_ctrls.wrQLenPdf::102                     0                       # What write queue length does an incoming req see
system.mem_ctrls.wrQLenPdf::103                     0                       # What write queue length does an incoming req see
system.mem_ctrls.wrQLenPdf::104                     0                       # What write queue length does an incoming req see
system.mem_ctrls.wrQLenPdf::105                     0                       # What write queue length does an incoming req see
system.mem_ctrls.wrQLenPdf::106                     0                       # What write queue length does an incoming req see
system.mem_ctrls.wrQLenPdf::107                     0                       # What write queue length does an incoming req see
system.mem_ctrls.wrQLenPdf::108                     0                       # What write queue length does an incoming req see
system.mem_ctrls.wrQLenPdf::109                     0                       # What write queue length does an incoming req see
system.mem_ctrls.wrQLenPdf::110                     0                       # What write queue length does an incoming req see
system.mem_ctrls.wrQLenPdf::111                     0                       # What write queue length does an incoming req see
system.mem_ctrls.wrQLenPdf::112                     0                       # What write queue length does an incoming req see
system.mem_ctrls.wrQLenPdf::113                     0                       # What write queue length does an incoming req see
system.mem_ctrls.wrQLenPdf::114                     0                       # What write queue length does an incoming req see
system.mem_ctrls.wrQLenPdf::115                     0                       # What write queue length does an incoming req see
system.mem_ctrls.wrQLenPdf::116                     0                       # What write queue length does an incoming req see
system.mem_ctrls.wrQLenPdf::117                     0                       # What write queue length does an incoming req see
system.mem_ctrls.wrQLenPdf::118                     0                       # What write queue length does an incoming req see
system.mem_ctrls.wrQLenPdf::119                     0                       # What write queue length does an incoming req see
system.mem_ctrls.wrQLenPdf::120                     0                       # What write queue length does an incoming req see
system.mem_ctrls.wrQLenPdf::121                     0                       # What write queue length does an incoming req see
system.mem_ctrls.wrQLenPdf::122                     0                       # What write queue length does an incoming req see
system.mem_ctrls.wrQLenPdf::123                     0                       # What write queue length does an incoming req see
system.mem_ctrls.wrQLenPdf::124                     0                       # What write queue length does an incoming req see
system.mem_ctrls.wrQLenPdf::125                     0                       # What write queue length does an incoming req see
system.mem_ctrls.wrQLenPdf::126                     0                       # What write queue length does an incoming req see
system.mem_ctrls.wrQLenPdf::127                     0                       # What write queue length does an incoming req see
system.mem_ctrls.totQLat                            0                       # Total ticks spent queuing
system.mem_ctrls.totMemAccLat                       0                       # Total ticks spent from burst creation until serviced by the DRAM
system.mem_ctrls.totBusLat                          0                       # Total ticks spent in databus transfers
system.mem_ctrls.avgQLat                          nan                       # Average queueing delay per DRAM burst
system.mem_ctrls.avgBusLat                        nan                       # Average bus latency per DRAM burst
system.mem_ctrls.avgMemAccLat                     nan                       # Average memory access latency per DRAM burst
system.mem_ctrls.avgRdBW                         0.00                       # Average DRAM read bandwidth in MiByte/s
system.mem_ctrls.avgWrBW                         0.00                       # Average achieved write bandwidth in MiByte/s
system.mem_ctrls.avgRdBWSys                      0.00                       # Average system read bandwidth in MiByte/s
system.mem_ctrls.avgWrBWSys                      0.00                       # Average system write bandwidth in MiByte/s
system.mem_ctrls.peakBW                      19207.00                       # Theoretical peak bandwidth in MiByte/s
system.mem_ctrls.busUtil                         0.00                       # Data bus utilization in percentage
system.mem_ctrls.busUtilRead                     0.00                       # Data bus utilization in percentage for reads
system.mem_ctrls.busUtilWrite                    0.00                       # Data bus utilization in percentage for writes
system.mem_ctrls.avgRdQLen                       0.00                       # Average read queue length when enqueuing
system.mem_ctrls.avgWrQLen                       0.00                       # Average write queue length when enqueuing
system.mem_ctrls.readRowHits                        0                       # Number of row buffer hits during reads
system.mem_ctrls.writeRowHits                       0                       # Number of row buffer hits during writes
system.mem_ctrls.readRowHitRate                   nan                       # Row buffer hit rate for reads
system.mem_ctrls.writeRowHitRate                  nan                       # Row buffer hit rate for writes
system.mem_ctrls.avgGap                           nan                       # Average gap between requests
system.mem_ctrls.pageHitRate                      nan                       # Row buffer hit rate, read and write combined
system.mem_ctrls_0.actEnergy                        0                       # Energy for activate commands per rank (pJ)
system.mem_ctrls_0.preEnergy                        0                       # Energy for precharge commands per rank (pJ)
system.mem_ctrls_0.readEnergy                       0                       # Energy for read commands per rank (pJ)
system.mem_ctrls_0.writeEnergy                      0                       # Energy for write commands per rank (pJ)
system.mem_ctrls_0.refreshEnergy                    0                       # Energy for refresh commands per rank (pJ)
system.mem_ctrls_0.actBackEnergy                    0                       # Energy for active background per rank (pJ)
system.mem_ctrls_0.preBackEnergy         888411883719065.875000                       # Energy for precharge background per rank (pJ)
system.mem_ctrls_0.actPowerDownEnergy               0                       # Energy for active power-down per rank (pJ)
system.mem_ctrls_0.prePowerDownEnergy               0                       # Energy for precharge power-down per rank (pJ)
system.mem_ctrls_0.selfRefreshEnergy                0                       # Energy for self refresh per rank (pJ)
system.mem_ctrls_0.totalEnergy           888411883719065.875000                       # Total energy per rank (pJ)
system.mem_ctrls_0.averagePower            163.200000                       # Core power per rank (mW)
system.mem_ctrls_0.totalIdleTime                    0                       # Total Idle time Per DRAM Rank
system.mem_ctrls_0.memoryStateTime::IDLE 12190823322667500                       # Time in different power states
system.mem_ctrls_0.memoryStateTime::REF             0                       # Time in different power states
system.mem_ctrls_0.memoryStateTime::SREF            0                       # Time in different power states
system.mem_ctrls_0.memoryStateTime::PRE_PDN            0                       # Time in different power states
system.mem_ctrls_0.memoryStateTime::ACT             0                       # Time in different power states
system.mem_ctrls_0.memoryStateTime::ACT_PDN            0                       # Time in different power states
system.mem_ctrls_1.actEnergy                        0                       # Energy for activate commands per rank (pJ)
system.mem_ctrls_1.preEnergy                        0                       # Energy for precharge commands per rank (pJ)
system.mem_ctrls_1.readEnergy                       0                       # Energy for read commands per rank (pJ)
system.mem_ctrls_1.writeEnergy                      0                       # Energy for write commands per rank (pJ)
system.mem_ctrls_1.refreshEnergy                    0                       # Energy for refresh commands per rank (pJ)
system.mem_ctrls_1.actBackEnergy                    0                       # Energy for active background per rank (pJ)
system.mem_ctrls_1.preBackEnergy         888411883719065.875000                       # Energy for precharge background per rank (pJ)
system.mem_ctrls_1.actPowerDownEnergy               0                       # Energy for active power-down per rank (pJ)
system.mem_ctrls_1.prePowerDownEnergy               0                       # Energy for precharge power-down per rank (pJ)
system.mem_ctrls_1.selfRefreshEnergy                0                       # Energy for self refresh per rank (pJ)
[...]
system.tol2bus12.pkt_size_system.cpu12.dtb.walker.dma::system.l212.cpu_side       976120                       # Cumulative packet size per connected master and slave (bytes)
system.tol2bus12.pkt_size::total            152904549                       # Cumulative packet size per connected master and slave (bytes)
system.tol2bus12.snoops                       1030161                       # Total snoops (count)
system.tol2bus12.snoopTraffic                 4203456                       # Total snoop traffic (bytes)
system.tol2bus12.snoop_fanout::samples        2515397                       # Request fanout histogram
system.tol2bus12.snoop_fanout::mean          0.096352                       # Request fanout histogram
system.tol2bus12.snoop_fanout::stdev         0.295175                       # Request fanout histogram
system.tol2bus12.snoop_fanout::underflows            0      0.00%      0.00% # Request fanout histogram
system.tol2bus12.snoop_fanout::0              2273108     90.37%     90.37% # Request fanout histogram
system.tol2bus12.snoop_fanout::1               242214      9.63%    100.00% # Request fanout histogram
system.tol2bus12.snoop_fanout::2                   75      0.00%    100.00% # Request fanout histogram
system.tol2bus12.snoop_fanout::overflows            0      0.00%    100.00% # Request fanout histogram
system.tol2bus12.snoop_fanout::min_value            0                       # Request fanout histogram
system.tol2bus12.snoop_fanout::max_value            2                       # Request fanout histogram
system.tol2bus12.snoop_fanout::total          2515397                       # Request fanout histogram
system.tol2bus12.directResponses                    0                       # auxiliar stat for checking how reasonable wireless model is
system.tol2bus13.snoop_filter.tot_requests      6648118                       # Total number of requests made to the snoop filter.
system.tol2bus13.snoop_filter.hit_single_requests      3332778                       # Number of requests hitting in the snoop filter with a single holder of the requested data.
system.tol2bus13.snoop_filter.hit_multi_requests          290                       # Number of requests hitting in the snoop filter with multiple (>1) holders of the requested data.
system.tol2bus13.snoop_filter.tot_snoops       268871                       # Total number of snoops made to the snoop filter.
system.tol2bus13.snoop_filter.hit_single_snoops       268827                       # Number of snoops hitting in the snoop filter with a single holder of the requested data.
system.tol2bus13.snoop_filter.hit_multi_snoops           44                       # Number of snoops hitting in the snoop filter with multiple (>1) holders of the requested data.
system.tol2bus13.pwrStateResidencyTicks::UNDEFINED 12190823322667500                       # Cumulative time (in ticks) in various power states
system.tol2bus13.trans_dist::ReadReq           902106                       # Transaction distribution
system.tol2bus13.trans_dist::ReadResp         3896746                       # Transaction distribution
system.tol2bus13.trans_dist::WriteReq            2566                       # Transaction distribution
system.tol2bus13.trans_dist::WriteResp           2566                       # Transaction distribution
system.tol2bus13.trans_dist::WritebackDirty      1035477                       # Transaction distribution
system.tol2bus13.trans_dist::WritebackClean      1767462                       # Transaction distribution
system.tol2bus13.trans_dist::CleanEvict        467584                       # Transaction distribution
system.tol2bus13.trans_dist::UpgradeReq         36219                       # Transaction distribution
system.tol2bus13.trans_dist::SCUpgradeReq        23485                       # Transaction distribution
system.tol2bus13.trans_dist::UpgradeResp        59704                       # Transaction distribution
system.tol2bus13.trans_dist::ReadExReq         272337                       # Transaction distribution
system.tol2bus13.trans_dist::ReadExResp        272337                       # Transaction distribution
system.tol2bus13.trans_dist::ReadCleanReq      1767974                       # Transaction distribution
system.tol2bus13.trans_dist::ReadSharedReq      1226666                       # Transaction distribution
system.tol2bus13.trans_dist::CleanSharedReq           64                       # Transaction distribution
system.tol2bus13.trans_dist::CleanSharedResp           64                       # Transaction distribution
system.tol2bus13.trans_dist::InvalidateReq        48323                       # Transaction distribution
system.tol2bus13.trans_dist::InvalidateResp        48323                       # Transaction distribution
system.tol2bus13.pkt_count_system.cpu13.icache.mem_side::system.l213.cpu_side      5303410                       # Packet count per connected master and slave (bytes)
system.tol2bus13.pkt_count_system.cpu13.dcache.mem_side::system.l213.cpu_side      4732017                       # Packet count per connected master and slave (bytes)
system.tol2bus13.pkt_count_system.cpu13.itb.walker.dma::system.l213.cpu_side      1084432                       # Packet count per connected master and slave (bytes)
system.tol2bus13.pkt_count_system.cpu13.dtb.walker.dma::system.l213.cpu_side       710144                       # Packet count per connected master and slave (bytes)
system.tol2bus13.pkt_count::total            11830003                       # Packet count per connected master and slave (bytes)
system.tol2bus13.pkt_size_system.cpu13.icache.mem_side::system.l213.cpu_side    226267904                       # Cumulative packet size per connected master and slave (bytes)
system.tol2bus13.pkt_size_system.cpu13.dcache.mem_side::system.l213.cpu_side    162236254                       # Cumulative packet size per connected master and slave (bytes)
system.tol2bus13.pkt_size_system.cpu13.itb.walker.dma::system.l213.cpu_side      4337728                       # Cumulative packet size per connected master and slave (bytes)
system.tol2bus13.pkt_size_system.cpu13.dtb.walker.dma::system.l213.cpu_side      2840576                       # Cumulative packet size per connected master and slave (bytes)
system.tol2bus13.pkt_size::total            395682462                       # Cumulative packet size per connected master and slave (bytes)
system.tol2bus13.snoops                       1119095                       # Total snoops (count)
system.tol2bus13.snoopTraffic                 3375104                       # Total snoop traffic (bytes)
system.tol2bus13.snoop_fanout::samples        5325851                       # Request fanout histogram
system.tol2bus13.snoop_fanout::mean          0.051021                       # Request fanout histogram
system.tol2bus13.snoop_fanout::stdev         0.220079                       # Request fanout histogram
system.tol2bus13.snoop_fanout::underflows            0      0.00%      0.00% # Request fanout histogram
system.tol2bus13.snoop_fanout::0              5054163     94.90%     94.90% # Request fanout histogram
system.tol2bus13.snoop_fanout::1               271644      5.10%    100.00% # Request fanout histogram
system.tol2bus13.snoop_fanout::2                   44      0.00%    100.00% # Request fanout histogram
system.tol2bus13.snoop_fanout::overflows            0      0.00%    100.00% # Request fanout histogram
system.tol2bus13.snoop_fanout::min_value            0                       # Request fanout histogram
system.tol2bus13.snoop_fanout::max_value            2                       # Request fanout histogram
system.tol2bus13.snoop_fanout::total          5325851                       # Request fanout histogram
system.tol2bus13.directResponses                    0                       # auxiliar stat for checking how reasonable wireless model is
system.tol2bus14.snoop_filter.tot_requests     34678306                       # Total number of requests made to the snoop filter.
system.tol2bus14.snoop_filter.hit_single_requests     17345100                       # Number of requests hitting in the snoop filter with a single holder of the requested data.
system.tol2bus14.snoop_filter.hit_multi_requests          322                       # Number of requests hitting in the snoop filter with multiple (>1) holders of the requested data.
system.tol2bus14.snoop_filter.tot_snoops       467372                       # Total number of snoops made to the snoop filter.
system.tol2bus14.snoop_filter.hit_single_snoops       467337                       # Number of snoops hitting in the snoop filter with a single holder of the requested data.
system.tol2bus14.snoop_filter.hit_multi_snoops           35                       # Number of snoops hitting in the snoop filter with multiple (>1) holders of the requested data.
system.tol2bus14.pwrStateResidencyTicks::UNDEFINED 12190823322667500                       # Cumulative time (in ticks) in various power states
system.tol2bus14.trans_dist::ReadReq          4594678                       # Transaction distribution
system.tol2bus14.trans_dist::ReadResp        20933491                       # Transaction distribution
system.tol2bus14.trans_dist::WriteReq            6109                       # Transaction distribution
system.tol2bus14.trans_dist::WriteResp           6109                       # Transaction distribution
system.tol2bus14.trans_dist::WritebackDirty      2578990                       # Transaction distribution
system.tol2bus14.trans_dist::WritebackClean     12776596                       # Transaction distribution
system.tol2bus14.trans_dist::CleanEvict       1885909                       # Transaction distribution
system.tol2bus14.trans_dist::UpgradeReq         61945                       # Transaction distribution
system.tol2bus14.trans_dist::SCUpgradeReq        38596                       # Transaction distribution
system.tol2bus14.trans_dist::UpgradeResp       100541                       # Transaction distribution
system.tol2bus14.trans_dist::ReadExReq         798987                       # Transaction distribution
system.tol2bus14.trans_dist::ReadExResp        798987                       # Transaction distribution
system.tol2bus14.trans_dist::ReadCleanReq     12777108                       # Transaction distribution
system.tol2bus14.trans_dist::ReadSharedReq      3561705                       # Transaction distribution
system.tol2bus14.trans_dist::InvalidateReq       196533                       # Transaction distribution
system.tol2bus14.trans_dist::InvalidateResp       196533                       # Transaction distribution
system.tol2bus14.pkt_count_system.cpu14.icache.mem_side::system.l214.cpu_side     38330812                       # Packet count per connected master and slave (bytes)
system.tol2bus14.pkt_count_system.cpu14.dcache.mem_side::system.l214.cpu_side     13801339                       # Packet count per connected master and slave (bytes)
system.tol2bus14.pkt_count_system.cpu14.itb.walker.dma::system.l214.cpu_side      7706854                       # Packet count per connected master and slave (bytes)
system.tol2bus14.pkt_count_system.cpu14.dtb.walker.dma::system.l214.cpu_side      1473812                       # Packet count per connected master and slave (bytes)
system.tol2bus14.pkt_count::total            61312817                       # Packet count per connected master and slave (bytes)
system.tol2bus14.pkt_size_system.cpu14.icache.mem_side::system.l214.cpu_side   1635437056                       # Cumulative packet size per connected master and slave (bytes)
system.tol2bus14.pkt_size_system.cpu14.dcache.mem_side::system.l214.cpu_side    444181464                       # Cumulative packet size per connected master and slave (bytes)
system.tol2bus14.pkt_size_system.cpu14.itb.walker.dma::system.l214.cpu_side     30827416                       # Cumulative packet size per connected master and slave (bytes)
system.tol2bus14.pkt_size_system.cpu14.dtb.walker.dma::system.l214.cpu_side      5895248                       # Cumulative packet size per connected master and slave (bytes)
system.tol2bus14.pkt_size::total           2116341184                       # Cumulative packet size per connected master and slave (bytes)
system.tol2bus14.snoops                       1858310                       # Total snoops (count)
system.tol2bus14.snoopTraffic                13952576                       # Total snoop traffic (bytes)
system.tol2bus14.snoop_fanout::samples       23741699                       # Request fanout histogram
system.tol2bus14.snoop_fanout::mean          0.019782                       # Request fanout histogram
system.tol2bus14.snoop_fanout::stdev         0.139262                       # Request fanout histogram
system.tol2bus14.snoop_fanout::underflows            0      0.00%      0.00% # Request fanout histogram
system.tol2bus14.snoop_fanout::0             23272068     98.02%     98.02% # Request fanout histogram
system.tol2bus14.snoop_fanout::1               469596      1.98%    100.00% # Request fanout histogram
system.tol2bus14.snoop_fanout::2                   35      0.00%    100.00% # Request fanout histogram
system.tol2bus14.snoop_fanout::overflows            0      0.00%    100.00% # Request fanout histogram
system.tol2bus14.snoop_fanout::min_value            0                       # Request fanout histogram
system.tol2bus14.snoop_fanout::max_value            2                       # Request fanout histogram
system.tol2bus14.snoop_fanout::total         23741699                       # Request fanout histogram
system.tol2bus14.directResponses                    0                       # auxiliar stat for checking how reasonable wireless model is
system.tol2bus15.snoop_filter.tot_requests      4374162                       # Total number of requests made to the snoop filter.
system.tol2bus15.snoop_filter.hit_single_requests      2193873                       # Number of requests hitting in the snoop filter with a single holder of the requested data.
system.tol2bus15.snoop_filter.hit_multi_requests          317                       # Number of requests hitting in the snoop filter with multiple (>1) holders of the requested data.
system.tol2bus15.snoop_filter.tot_snoops       262734                       # Total number of snoops made to the snoop filter.
system.tol2bus15.snoop_filter.hit_single_snoops       262686                       # Number of snoops hitting in the snoop filter with a single holder of the requested data.
system.tol2bus15.snoop_filter.hit_multi_snoops           48                       # Number of snoops hitting in the snoop filter with multiple (>1) holders of the requested data.
system.tol2bus15.pwrStateResidencyTicks::UNDEFINED 12190823322667500                       # Cumulative time (in ticks) in various power states
system.tol2bus15.trans_dist::ReadReq           484109                       # Transaction distribution
system.tol2bus15.trans_dist::ReadResp         2398968                       # Transaction distribution
system.tol2bus15.trans_dist::WriteReq            2646                       # Transaction distribution
system.tol2bus15.trans_dist::WriteResp           2646                       # Transaction distribution
system.tol2bus15.trans_dist::WritebackDirty       838179                       # Transaction distribution
system.tol2bus15.trans_dist::WritebackClean       997592                       # Transaction distribution
system.tol2bus15.trans_dist::CleanEvict        299768                       # Transaction distribution
system.tol2bus15.trans_dist::UpgradeReq         32173                       # Transaction distribution
system.tol2bus15.trans_dist::SCUpgradeReq        19186                       # Transaction distribution
system.tol2bus15.trans_dist::UpgradeResp        51359                       # Transaction distribution
system.tol2bus15.trans_dist::ReadExReq         238180                       # Transaction distribution
system.tol2bus15.trans_dist::ReadExResp        238180                       # Transaction distribution
system.tol2bus15.trans_dist::ReadCleanReq       998104                       # Transaction distribution
system.tol2bus15.trans_dist::ReadSharedReq       916755                       # Transaction distribution
system.tol2bus15.trans_dist::CleanSharedReq          128                       # Transaction distribution
system.tol2bus15.trans_dist::CleanSharedResp          128                       # Transaction distribution
system.tol2bus15.trans_dist::InvalidateReq        27195                       # Transaction distribution
system.tol2bus15.trans_dist::InvalidateResp        27195                       # Transaction distribution
system.tol2bus15.pkt_count_system.cpu15.icache.mem_side::system.l215.cpu_side      2993800                       # Packet count per connected master and slave (bytes)
system.tol2bus15.pkt_count_system.cpu15.dcache.mem_side::system.l215.cpu_side      3617765                       # Packet count per connected master and slave (bytes)
system.tol2bus15.pkt_count_system.cpu15.itb.walker.dma::system.l215.cpu_side       553958                       # Packet count per connected master and slave (bytes)
system.tol2bus15.pkt_count_system.cpu15.dtb.walker.dma::system.l215.cpu_side       406968                       # Packet count per connected master and slave (bytes)
system.tol2bus15.pkt_count::total             7572491                       # Packet count per connected master and slave (bytes)
system.tol2bus15.pkt_size_system.cpu15.icache.mem_side::system.l215.cpu_side    127724544                       # Cumulative packet size per connected master and slave (bytes)
system.tol2bus15.pkt_size_system.cpu15.dcache.mem_side::system.l215.cpu_side    127583693                       # Cumulative packet size per connected master and slave (bytes)
system.tol2bus15.pkt_size_system.cpu15.itb.walker.dma::system.l215.cpu_side      2215832                       # Cumulative packet size per connected master and slave (bytes)
system.tol2bus15.pkt_size_system.cpu15.dtb.walker.dma::system.l215.cpu_side      1627872                       # Cumulative packet size per connected master and slave (bytes)
system.tol2bus15.pkt_size::total            259151941                       # Cumulative packet size per connected master and slave (bytes)
system.tol2bus15.snoops                       1158895                       # Total snoops (count)
system.tol2bus15.snoopTraffic                 4827840                       # Total snoop traffic (bytes)
system.tol2bus15.snoop_fanout::samples        3808724                       # Request fanout histogram
system.tol2bus15.snoop_fanout::mean          0.070890                       # Request fanout histogram
system.tol2bus15.snoop_fanout::stdev         0.256690                       # Request fanout histogram
system.tol2bus15.snoop_fanout::underflows            0      0.00%      0.00% # Request fanout histogram
system.tol2bus15.snoop_fanout::0              3538771     92.91%     92.91% # Request fanout histogram
system.tol2bus15.snoop_fanout::1               269905      7.09%    100.00% # Request fanout histogram
system.tol2bus15.snoop_fanout::2                   48      0.00%    100.00% # Request fanout histogram
system.tol2bus15.snoop_fanout::overflows            0      0.00%    100.00% # Request fanout histogram
system.tol2bus15.snoop_fanout::min_value            0                       # Request fanout histogram
system.tol2bus15.snoop_fanout::max_value            2                       # Request fanout histogram
system.tol2bus15.snoop_fanout::total          3808724                       # Request fanout histogram
system.tol2bus15.directResponses                    0                       # auxiliar stat for checking how reasonable wireless model is

---------- End Simulation Statistics   ----------
