
---------- Begin Simulation Statistics ----------
sim_seconds                               2843.467984                       # Number of seconds simulated
sim_ticks                                2843467984138500                       # Number of ticks simulated
final_tick                               9590591038919500                       # Number of ticks from beginning of simulation (restored from checkpoints and never reset)
sim_freq                                 1000000000000                       # Frequency of simulated ticks
host_inst_rate                                2601876                       # Simulator instruction rate (inst/s)
host_op_rate                                  2904317                       # Simulator op (including micro ops) rate (op/s)
host_tick_rate                           530928836177                       # Simulator tick rate (ticks/s)
host_mem_usage                                4905180                       # Number of bytes of host memory used
host_seconds                                  5355.65                       # Real time elapsed on the host
sim_insts                                 13934732644                       # Number of instructions simulated
sim_ops                                   15554501342                       # Number of ops (including micro ops) simulated
system.voltage_domain.voltage                       1                       # Voltage in Volts
system.clk_domain.clock                           625                       # Clock period in ticks
system.bootmem.pwrStateResidencyTicks::UNDEFINED 9590591038919500                       # Cumulative time (in ticks) in various power states
system.mem_ctrls.pwrStateResidencyTicks::UNDEFINED 9590591038919500                       # Cumulative time (in ticks) in various power states
system.mem_ctrls.bytes_read::cpu00.dtb.walker      1107072                       # Number of bytes read from this memory
system.mem_ctrls.bytes_read::cpu00.itb.walker        68928                       # Number of bytes read from this memory
system.mem_ctrls.bytes_read::cpu00.inst       2901888                       # Number of bytes read from this memory
system.mem_ctrls.bytes_read::cpu00.data      55834304                       # Number of bytes read from this memory
system.mem_ctrls.bytes_read::cpu01.dtb.walker         1856                       # Number of bytes read from this memory
system.mem_ctrls.bytes_read::cpu01.itb.walker         3136                       # Number of bytes read from this memory
system.mem_ctrls.bytes_read::cpu01.inst         94592                       # Number of bytes read from this memory
system.mem_ctrls.bytes_read::cpu01.data         66112                       # Number of bytes read from this memory
system.mem_ctrls.bytes_read::cpu02.dtb.walker        18688                       # Number of bytes read from this memory
system.mem_ctrls.bytes_read::cpu02.itb.walker        11200                       # Number of bytes read from this memory
system.mem_ctrls.bytes_read::cpu02.inst       1517440                       # Number of bytes read from this memory
system.mem_ctrls.bytes_read::cpu02.data       2471232                       # Number of bytes read from this memory
system.mem_ctrls.bytes_read::cpu03.dtb.walker       707968                       # Number of bytes read from this memory
system.mem_ctrls.bytes_read::cpu03.itb.walker       117568                       # Number of bytes read from this memory
system.mem_ctrls.bytes_read::cpu03.inst       3265472                       # Number of bytes read from this memory
system.mem_ctrls.bytes_read::cpu03.data      64662592                       # Number of bytes read from this memory
system.mem_ctrls.bytes_read::cpu04.dtb.walker        84992                       # Number of bytes read from this memory
system.mem_ctrls.bytes_read::cpu04.itb.walker        32192                       # Number of bytes read from this memory
system.mem_ctrls.bytes_read::cpu04.inst       3188416                       # Number of bytes read from this memory
system.mem_ctrls.bytes_read::cpu04.data       3223616                       # Number of bytes read from this memory
system.mem_ctrls.bytes_read::cpu05.dtb.walker         5952                       # Number of bytes read from this memory
system.mem_ctrls.bytes_read::cpu05.itb.walker         3648                       # Number of bytes read from this memory
system.mem_ctrls.bytes_read::cpu05.inst        461120                       # Number of bytes read from this memory
system.mem_ctrls.bytes_read::cpu05.data        780736                       # Number of bytes read from this memory
system.mem_ctrls.bytes_read::cpu06.dtb.walker         1856                       # Number of bytes read from this memory
system.mem_ctrls.bytes_read::cpu06.itb.walker         2752                       # Number of bytes read from this memory
system.mem_ctrls.bytes_read::cpu06.inst        136320                       # Number of bytes read from this memory
system.mem_ctrls.bytes_read::cpu06.data        239552                       # Number of bytes read from this memory
system.mem_ctrls.bytes_read::cpu07.dtb.walker         2240                       # Number of bytes read from this memory
system.mem_ctrls.bytes_read::cpu07.itb.walker          832                       # Number of bytes read from this memory
system.mem_ctrls.bytes_read::cpu07.inst        223488                       # Number of bytes read from this memory
system.mem_ctrls.bytes_read::cpu07.data        598784                       # Number of bytes read from this memory
system.mem_ctrls.bytes_read::cpu08.dtb.walker         4032                       # Number of bytes read from this memory
system.mem_ctrls.bytes_read::cpu08.itb.walker         5312                       # Number of bytes read from this memory
system.mem_ctrls.bytes_read::cpu08.inst        423104                       # Number of bytes read from this memory
system.mem_ctrls.bytes_read::cpu08.data        616128                       # Number of bytes read from this memory
system.mem_ctrls.bytes_read::cpu09.dtb.walker         1280                       # Number of bytes read from this memory
system.mem_ctrls.bytes_read::cpu09.itb.walker          704                       # Number of bytes read from this memory
system.mem_ctrls.bytes_read::cpu09.inst        137600                       # Number of bytes read from this memory
system.mem_ctrls.bytes_read::cpu09.data        391232                       # Number of bytes read from this memory
system.mem_ctrls.bytes_read::cpu11.dtb.walker         2048                       # Number of bytes read from this memory
system.mem_ctrls.bytes_read::cpu11.itb.walker          448                       # Number of bytes read from this memory
system.mem_ctrls.bytes_read::cpu11.inst        206592                       # Number of bytes read from this memory
system.mem_ctrls.bytes_read::cpu11.data        345152                       # Number of bytes read from this memory
system.mem_ctrls.bytes_read::cpu12.dtb.walker         2432                       # Number of bytes read from this memory
system.mem_ctrls.bytes_read::cpu12.itb.walker         1216                       # Number of bytes read from this memory
system.mem_ctrls.bytes_read::cpu12.inst        268160                       # Number of bytes read from this memory
system.mem_ctrls.bytes_read::cpu12.data        350336                       # Number of bytes read from this memory
system.mem_ctrls.bytes_read::cpu13.dtb.walker        36416                       # Number of bytes read from this memory
system.mem_ctrls.bytes_read::cpu13.itb.walker        47936                       # Number of bytes read from this memory
system.mem_ctrls.bytes_read::cpu13.inst       1161920                       # Number of bytes read from this memory
system.mem_ctrls.bytes_read::cpu13.data       1170560                       # Number of bytes read from this memory
system.mem_ctrls.bytes_read::cpu14.dtb.walker       732992                       # Number of bytes read from this memory
system.mem_ctrls.bytes_read::cpu14.itb.walker       570688                       # Number of bytes read from this memory
system.mem_ctrls.bytes_read::cpu14.inst      10259968                       # Number of bytes read from this memory
system.mem_ctrls.bytes_read::cpu14.data       8664192                       # Number of bytes read from this memory
system.mem_ctrls.bytes_read::cpu15.dtb.walker        66048                       # Number of bytes read from this memory
system.mem_ctrls.bytes_read::cpu15.itb.walker        80832                       # Number of bytes read from this memory
system.mem_ctrls.bytes_read::cpu15.inst       1471744                       # Number of bytes read from this memory
system.mem_ctrls.bytes_read::cpu15.data       1408896                       # Number of bytes read from this memory
system.mem_ctrls.bytes_read::total          170264512                       # Number of bytes read from this memory
system.mem_ctrls.bytes_inst_read::cpu00.inst      2901888                       # Number of instructions bytes read from this memory
system.mem_ctrls.bytes_inst_read::cpu01.inst        94592                       # Number of instructions bytes read from this memory
system.mem_ctrls.bytes_inst_read::cpu02.inst      1517440                       # Number of instructions bytes read from this memory
system.mem_ctrls.bytes_inst_read::cpu03.inst      3265472                       # Number of instructions bytes read from this memory
system.mem_ctrls.bytes_inst_read::cpu04.inst      3188416                       # Number of instructions bytes read from this memory
system.mem_ctrls.bytes_inst_read::cpu05.inst       461120                       # Number of instructions bytes read from this memory
system.mem_ctrls.bytes_inst_read::cpu06.inst       136320                       # Number of instructions bytes read from this memory
system.mem_ctrls.bytes_inst_read::cpu07.inst       223488                       # Number of instructions bytes read from this memory
system.mem_ctrls.bytes_inst_read::cpu08.inst       423104                       # Number of instructions bytes read from this memory
system.mem_ctrls.bytes_inst_read::cpu09.inst       137600                       # Number of instructions bytes read from this memory
system.mem_ctrls.bytes_inst_read::cpu11.inst       206592                       # Number of instructions bytes read from this memory
system.mem_ctrls.bytes_inst_read::cpu12.inst       268160                       # Number of instructions bytes read from this memory
system.mem_ctrls.bytes_inst_read::cpu13.inst      1161920                       # Number of instructions bytes read from this memory
system.mem_ctrls.bytes_inst_read::cpu14.inst     10259968                       # Number of instructions bytes read from this memory
system.mem_ctrls.bytes_inst_read::cpu15.inst      1471744                       # Number of instructions bytes read from this memory
system.mem_ctrls.bytes_inst_read::total      25717824                       # Number of instructions bytes read from this memory
system.mem_ctrls.bytes_written::writebacks     60996224                       # Number of bytes written to this memory
system.mem_ctrls.bytes_written::total        60996224                       # Number of bytes written to this memory
system.mem_ctrls.num_reads::cpu00.dtb.walker        17298                       # Number of read requests responded to by this memory
system.mem_ctrls.num_reads::cpu00.itb.walker         1077                       # Number of read requests responded to by this memory
system.mem_ctrls.num_reads::cpu00.inst          45342                       # Number of read requests responded to by this memory
system.mem_ctrls.num_reads::cpu00.data         872411                       # Number of read requests responded to by this memory
system.mem_ctrls.num_reads::cpu01.dtb.walker           29                       # Number of read requests responded to by this memory
system.mem_ctrls.num_reads::cpu01.itb.walker           49                       # Number of read requests responded to by this memory
system.mem_ctrls.num_reads::cpu01.inst           1478                       # Number of read requests responded to by this memory
system.mem_ctrls.num_reads::cpu01.data           1033                       # Number of read requests responded to by this memory
system.mem_ctrls.num_reads::cpu02.dtb.walker          292                       # Number of read requests responded to by this memory
system.mem_ctrls.num_reads::cpu02.itb.walker          175                       # Number of read requests responded to by this memory
system.mem_ctrls.num_reads::cpu02.inst          23710                       # Number of read requests responded to by this memory
system.mem_ctrls.num_reads::cpu02.data          38613                       # Number of read requests responded to by this memory
system.mem_ctrls.num_reads::cpu03.dtb.walker        11062                       # Number of read requests responded to by this memory
system.mem_ctrls.num_reads::cpu03.itb.walker         1837                       # Number of read requests responded to by this memory
system.mem_ctrls.num_reads::cpu03.inst          51023                       # Number of read requests responded to by this memory
system.mem_ctrls.num_reads::cpu03.data        1010353                       # Number of read requests responded to by this memory
system.mem_ctrls.num_reads::cpu04.dtb.walker         1328                       # Number of read requests responded to by this memory
system.mem_ctrls.num_reads::cpu04.itb.walker          503                       # Number of read requests responded to by this memory
system.mem_ctrls.num_reads::cpu04.inst          49819                       # Number of read requests responded to by this memory
system.mem_ctrls.num_reads::cpu04.data          50369                       # Number of read requests responded to by this memory
system.mem_ctrls.num_reads::cpu05.dtb.walker           93                       # Number of read requests responded to by this memory
system.mem_ctrls.num_reads::cpu05.itb.walker           57                       # Number of read requests responded to by this memory
system.mem_ctrls.num_reads::cpu05.inst           7205                       # Number of read requests responded to by this memory
system.mem_ctrls.num_reads::cpu05.data          12199                       # Number of read requests responded to by this memory
system.mem_ctrls.num_reads::cpu06.dtb.walker           29                       # Number of read requests responded to by this memory
system.mem_ctrls.num_reads::cpu06.itb.walker           43                       # Number of read requests responded to by this memory
system.mem_ctrls.num_reads::cpu06.inst           2130                       # Number of read requests responded to by this memory
system.mem_ctrls.num_reads::cpu06.data           3743                       # Number of read requests responded to by this memory
system.mem_ctrls.num_reads::cpu07.dtb.walker           35                       # Number of read requests responded to by this memory
system.mem_ctrls.num_reads::cpu07.itb.walker           13                       # Number of read requests responded to by this memory
system.mem_ctrls.num_reads::cpu07.inst           3492                       # Number of read requests responded to by this memory
system.mem_ctrls.num_reads::cpu07.data           9356                       # Number of read requests responded to by this memory
system.mem_ctrls.num_reads::cpu08.dtb.walker           63                       # Number of read requests responded to by this memory
system.mem_ctrls.num_reads::cpu08.itb.walker           83                       # Number of read requests responded to by this memory
system.mem_ctrls.num_reads::cpu08.inst           6611                       # Number of read requests responded to by this memory
system.mem_ctrls.num_reads::cpu08.data           9627                       # Number of read requests responded to by this memory
system.mem_ctrls.num_reads::cpu09.dtb.walker           20                       # Number of read requests responded to by this memory
system.mem_ctrls.num_reads::cpu09.itb.walker           11                       # Number of read requests responded to by this memory
system.mem_ctrls.num_reads::cpu09.inst           2150                       # Number of read requests responded to by this memory
system.mem_ctrls.num_reads::cpu09.data           6113                       # Number of read requests responded to by this memory
system.mem_ctrls.num_reads::cpu11.dtb.walker           32                       # Number of read requests responded to by this memory
system.mem_ctrls.num_reads::cpu11.itb.walker            7                       # Number of read requests responded to by this memory
system.mem_ctrls.num_reads::cpu11.inst           3228                       # Number of read requests responded to by this memory
system.mem_ctrls.num_reads::cpu11.data           5393                       # Number of read requests responded to by this memory
system.mem_ctrls.num_reads::cpu12.dtb.walker           38                       # Number of read requests responded to by this memory
system.mem_ctrls.num_reads::cpu12.itb.walker           19                       # Number of read requests responded to by this memory
system.mem_ctrls.num_reads::cpu12.inst           4190                       # Number of read requests responded to by this memory
system.mem_ctrls.num_reads::cpu12.data           5474                       # Number of read requests responded to by this memory
system.mem_ctrls.num_reads::cpu13.dtb.walker          569                       # Number of read requests responded to by this memory
system.mem_ctrls.num_reads::cpu13.itb.walker          749                       # Number of read requests responded to by this memory
system.mem_ctrls.num_reads::cpu13.inst          18155                       # Number of read requests responded to by this memory
system.mem_ctrls.num_reads::cpu13.data          18290                       # Number of read requests responded to by this memory
system.mem_ctrls.num_reads::cpu14.dtb.walker        11453                       # Number of read requests responded to by this memory
system.mem_ctrls.num_reads::cpu14.itb.walker         8917                       # Number of read requests responded to by this memory
system.mem_ctrls.num_reads::cpu14.inst         160312                       # Number of read requests responded to by this memory
system.mem_ctrls.num_reads::cpu14.data         135378                       # Number of read requests responded to by this memory
system.mem_ctrls.num_reads::cpu15.dtb.walker         1032                       # Number of read requests responded to by this memory
system.mem_ctrls.num_reads::cpu15.itb.walker         1263                       # Number of read requests responded to by this memory
system.mem_ctrls.num_reads::cpu15.inst          22996                       # Number of read requests responded to by this memory
system.mem_ctrls.num_reads::cpu15.data          22014                       # Number of read requests responded to by this memory
system.mem_ctrls.num_reads::total             2660383                       # Number of read requests responded to by this memory
system.mem_ctrls.num_writes::writebacks        953066                       # Number of write requests responded to by this memory
system.mem_ctrls.num_writes::total             953066                       # Number of write requests responded to by this memory
system.mem_ctrls.bw_read::cpu00.dtb.walker          389                       # Total read bandwidth from this memory (bytes/s)
system.mem_ctrls.bw_read::cpu00.itb.walker           24                       # Total read bandwidth from this memory (bytes/s)
system.mem_ctrls.bw_read::cpu00.inst             1021                       # Total read bandwidth from this memory (bytes/s)
system.mem_ctrls.bw_read::cpu00.data            19636                       # Total read bandwidth from this memory (bytes/s)
system.mem_ctrls.bw_read::cpu01.dtb.walker            1                       # Total read bandwidth from this memory (bytes/s)
system.mem_ctrls.bw_read::cpu01.itb.walker            1                       # Total read bandwidth from this memory (bytes/s)
system.mem_ctrls.bw_read::cpu01.inst               33                       # Total read bandwidth from this memory (bytes/s)
system.mem_ctrls.bw_read::cpu01.data               23                       # Total read bandwidth from this memory (bytes/s)
system.mem_ctrls.bw_read::cpu02.dtb.walker            7                       # Total read bandwidth from this memory (bytes/s)
system.mem_ctrls.bw_read::cpu02.itb.walker            4                       # Total read bandwidth from this memory (bytes/s)
system.mem_ctrls.bw_read::cpu02.inst              534                       # Total read bandwidth from this memory (bytes/s)
system.mem_ctrls.bw_read::cpu02.data              869                       # Total read bandwidth from this memory (bytes/s)
system.mem_ctrls.bw_read::cpu03.dtb.walker          249                       # Total read bandwidth from this memory (bytes/s)
system.mem_ctrls.bw_read::cpu03.itb.walker           41                       # Total read bandwidth from this memory (bytes/s)
system.mem_ctrls.bw_read::cpu03.inst             1148                       # Total read bandwidth from this memory (bytes/s)
system.mem_ctrls.bw_read::cpu03.data            22741                       # Total read bandwidth from this memory (bytes/s)
system.mem_ctrls.bw_read::cpu04.dtb.walker           30                       # Total read bandwidth from this memory (bytes/s)
system.mem_ctrls.bw_read::cpu04.itb.walker           11                       # Total read bandwidth from this memory (bytes/s)
system.mem_ctrls.bw_read::cpu04.inst             1121                       # Total read bandwidth from this memory (bytes/s)
system.mem_ctrls.bw_read::cpu04.data             1134                       # Total read bandwidth from this memory (bytes/s)
system.mem_ctrls.bw_read::cpu05.dtb.walker            2                       # Total read bandwidth from this memory (bytes/s)
system.mem_ctrls.bw_read::cpu05.itb.walker            1                       # Total read bandwidth from this memory (bytes/s)
system.mem_ctrls.bw_read::cpu05.inst              162                       # Total read bandwidth from this memory (bytes/s)
system.mem_ctrls.bw_read::cpu05.data              275                       # Total read bandwidth from this memory (bytes/s)
system.mem_ctrls.bw_read::cpu06.dtb.walker            1                       # Total read bandwidth from this memory (bytes/s)
system.mem_ctrls.bw_read::cpu06.itb.walker            1                       # Total read bandwidth from this memory (bytes/s)
system.mem_ctrls.bw_read::cpu06.inst               48                       # Total read bandwidth from this memory (bytes/s)
system.mem_ctrls.bw_read::cpu06.data               84                       # Total read bandwidth from this memory (bytes/s)
system.mem_ctrls.bw_read::cpu07.dtb.walker            1                       # Total read bandwidth from this memory (bytes/s)
system.mem_ctrls.bw_read::cpu07.itb.walker            0                       # Total read bandwidth from this memory (bytes/s)
system.mem_ctrls.bw_read::cpu07.inst               79                       # Total read bandwidth from this memory (bytes/s)
system.mem_ctrls.bw_read::cpu07.data              211                       # Total read bandwidth from this memory (bytes/s)
system.mem_ctrls.bw_read::cpu08.dtb.walker            1                       # Total read bandwidth from this memory (bytes/s)
system.mem_ctrls.bw_read::cpu08.itb.walker            2                       # Total read bandwidth from this memory (bytes/s)
system.mem_ctrls.bw_read::cpu08.inst              149                       # Total read bandwidth from this memory (bytes/s)
system.mem_ctrls.bw_read::cpu08.data              217                       # Total read bandwidth from this memory (bytes/s)
system.mem_ctrls.bw_read::cpu09.dtb.walker            0                       # Total read bandwidth from this memory (bytes/s)
system.mem_ctrls.bw_read::cpu09.itb.walker            0                       # Total read bandwidth from this memory (bytes/s)
system.mem_ctrls.bw_read::cpu09.inst               48                       # Total read bandwidth from this memory (bytes/s)
system.mem_ctrls.bw_read::cpu09.data              138                       # Total read bandwidth from this memory (bytes/s)
system.mem_ctrls.bw_read::cpu11.dtb.walker            1                       # Total read bandwidth from this memory (bytes/s)
system.mem_ctrls.bw_read::cpu11.itb.walker            0                       # Total read bandwidth from this memory (bytes/s)
system.mem_ctrls.bw_read::cpu11.inst               73                       # Total read bandwidth from this memory (bytes/s)
system.mem_ctrls.bw_read::cpu11.data              121                       # Total read bandwidth from this memory (bytes/s)
system.mem_ctrls.bw_read::cpu12.dtb.walker            1                       # Total read bandwidth from this memory (bytes/s)
system.mem_ctrls.bw_read::cpu12.itb.walker            0                       # Total read bandwidth from this memory (bytes/s)
system.mem_ctrls.bw_read::cpu12.inst               94                       # Total read bandwidth from this memory (bytes/s)
system.mem_ctrls.bw_read::cpu12.data              123                       # Total read bandwidth from this memory (bytes/s)
system.mem_ctrls.bw_read::cpu13.dtb.walker           13                       # Total read bandwidth from this memory (bytes/s)
system.mem_ctrls.bw_read::cpu13.itb.walker           17                       # Total read bandwidth from this memory (bytes/s)
system.mem_ctrls.bw_read::cpu13.inst              409                       # Total read bandwidth from this memory (bytes/s)
system.mem_ctrls.bw_read::cpu13.data              412                       # Total read bandwidth from this memory (bytes/s)
system.mem_ctrls.bw_read::cpu14.dtb.walker          258                       # Total read bandwidth from this memory (bytes/s)
system.mem_ctrls.bw_read::cpu14.itb.walker          201                       # Total read bandwidth from this memory (bytes/s)
system.mem_ctrls.bw_read::cpu14.inst             3608                       # Total read bandwidth from this memory (bytes/s)
system.mem_ctrls.bw_read::cpu14.data             3047                       # Total read bandwidth from this memory (bytes/s)
system.mem_ctrls.bw_read::cpu15.dtb.walker           23                       # Total read bandwidth from this memory (bytes/s)
system.mem_ctrls.bw_read::cpu15.itb.walker           28                       # Total read bandwidth from this memory (bytes/s)
system.mem_ctrls.bw_read::cpu15.inst              518                       # Total read bandwidth from this memory (bytes/s)
system.mem_ctrls.bw_read::cpu15.data              495                       # Total read bandwidth from this memory (bytes/s)
system.mem_ctrls.bw_read::total                 59879                       # Total read bandwidth from this memory (bytes/s)
system.mem_ctrls.bw_inst_read::cpu00.inst         1021                       # Instruction read bandwidth from this memory (bytes/s)
system.mem_ctrls.bw_inst_read::cpu01.inst           33                       # Instruction read bandwidth from this memory (bytes/s)
system.mem_ctrls.bw_inst_read::cpu02.inst          534                       # Instruction read bandwidth from this memory (bytes/s)
system.mem_ctrls.bw_inst_read::cpu03.inst         1148                       # Instruction read bandwidth from this memory (bytes/s)
system.mem_ctrls.bw_inst_read::cpu04.inst         1121                       # Instruction read bandwidth from this memory (bytes/s)
system.mem_ctrls.bw_inst_read::cpu05.inst          162                       # Instruction read bandwidth from this memory (bytes/s)
system.mem_ctrls.bw_inst_read::cpu06.inst           48                       # Instruction read bandwidth from this memory (bytes/s)
system.mem_ctrls.bw_inst_read::cpu07.inst           79                       # Instruction read bandwidth from this memory (bytes/s)
system.mem_ctrls.bw_inst_read::cpu08.inst          149                       # Instruction read bandwidth from this memory (bytes/s)
system.mem_ctrls.bw_inst_read::cpu09.inst           48                       # Instruction read bandwidth from this memory (bytes/s)
system.mem_ctrls.bw_inst_read::cpu11.inst           73                       # Instruction read bandwidth from this memory (bytes/s)
system.mem_ctrls.bw_inst_read::cpu12.inst           94                       # Instruction read bandwidth from this memory (bytes/s)
system.mem_ctrls.bw_inst_read::cpu13.inst          409                       # Instruction read bandwidth from this memory (bytes/s)
system.mem_ctrls.bw_inst_read::cpu14.inst         3608                       # Instruction read bandwidth from this memory (bytes/s)
system.mem_ctrls.bw_inst_read::cpu15.inst          518                       # Instruction read bandwidth from this memory (bytes/s)
system.mem_ctrls.bw_inst_read::total             9045                       # Instruction read bandwidth from this memory (bytes/s)
system.mem_ctrls.bw_write::writebacks           21451                       # Write bandwidth from this memory (bytes/s)
system.mem_ctrls.bw_write::total                21451                       # Write bandwidth from this memory (bytes/s)
system.mem_ctrls.bw_total::writebacks           21451                       # Total bandwidth to/from this memory (bytes/s)
system.mem_ctrls.bw_total::cpu00.dtb.walker          389                       # Total bandwidth to/from this memory (bytes/s)
system.mem_ctrls.bw_total::cpu00.itb.walker           24                       # Total bandwidth to/from this memory (bytes/s)
system.mem_ctrls.bw_total::cpu00.inst            1021                       # Total bandwidth to/from this memory (bytes/s)
system.mem_ctrls.bw_total::cpu00.data           19636                       # Total bandwidth to/from this memory (bytes/s)
system.mem_ctrls.bw_total::cpu01.dtb.walker            1                       # Total bandwidth to/from this memory (bytes/s)
system.mem_ctrls.bw_total::cpu01.itb.walker            1                       # Total bandwidth to/from this memory (bytes/s)
system.mem_ctrls.bw_total::cpu01.inst              33                       # Total bandwidth to/from this memory (bytes/s)
system.mem_ctrls.bw_total::cpu01.data              23                       # Total bandwidth to/from this memory (bytes/s)
system.mem_ctrls.bw_total::cpu02.dtb.walker            7                       # Total bandwidth to/from this memory (bytes/s)
system.mem_ctrls.bw_total::cpu02.itb.walker            4                       # Total bandwidth to/from this memory (bytes/s)
system.mem_ctrls.bw_total::cpu02.inst             534                       # Total bandwidth to/from this memory (bytes/s)
system.mem_ctrls.bw_total::cpu02.data             869                       # Total bandwidth to/from this memory (bytes/s)
system.mem_ctrls.bw_total::cpu03.dtb.walker          249                       # Total bandwidth to/from this memory (bytes/s)
system.mem_ctrls.bw_total::cpu03.itb.walker           41                       # Total bandwidth to/from this memory (bytes/s)
system.mem_ctrls.bw_total::cpu03.inst            1148                       # Total bandwidth to/from this memory (bytes/s)
system.mem_ctrls.bw_total::cpu03.data           22741                       # Total bandwidth to/from this memory (bytes/s)
system.mem_ctrls.bw_total::cpu04.dtb.walker           30                       # Total bandwidth to/from this memory (bytes/s)
system.mem_ctrls.bw_total::cpu04.itb.walker           11                       # Total bandwidth to/from this memory (bytes/s)
system.mem_ctrls.bw_total::cpu04.inst            1121                       # Total bandwidth to/from this memory (bytes/s)
system.mem_ctrls.bw_total::cpu04.data            1134                       # Total bandwidth to/from this memory (bytes/s)
system.mem_ctrls.bw_total::cpu05.dtb.walker            2                       # Total bandwidth to/from this memory (bytes/s)
system.mem_ctrls.bw_total::cpu05.itb.walker            1                       # Total bandwidth to/from this memory (bytes/s)
system.mem_ctrls.bw_total::cpu05.inst             162                       # Total bandwidth to/from this memory (bytes/s)
system.mem_ctrls.bw_total::cpu05.data             275                       # Total bandwidth to/from this memory (bytes/s)
system.mem_ctrls.bw_total::cpu06.dtb.walker            1                       # Total bandwidth to/from this memory (bytes/s)
system.mem_ctrls.bw_total::cpu06.itb.walker            1                       # Total bandwidth to/from this memory (bytes/s)
system.mem_ctrls.bw_total::cpu06.inst              48                       # Total bandwidth to/from this memory (bytes/s)
system.mem_ctrls.bw_total::cpu06.data              84                       # Total bandwidth to/from this memory (bytes/s)
system.mem_ctrls.bw_total::cpu07.dtb.walker            1                       # Total bandwidth to/from this memory (bytes/s)
system.mem_ctrls.bw_total::cpu07.itb.walker            0                       # Total bandwidth to/from this memory (bytes/s)
system.mem_ctrls.bw_total::cpu07.inst              79                       # Total bandwidth to/from this memory (bytes/s)
system.mem_ctrls.bw_total::cpu07.data             211                       # Total bandwidth to/from this memory (bytes/s)
system.mem_ctrls.bw_total::cpu08.dtb.walker            1                       # Total bandwidth to/from this memory (bytes/s)
system.mem_ctrls.bw_total::cpu08.itb.walker            2                       # Total bandwidth to/from this memory (bytes/s)
system.mem_ctrls.bw_total::cpu08.inst             149                       # Total bandwidth to/from this memory (bytes/s)
system.mem_ctrls.bw_total::cpu08.data             217                       # Total bandwidth to/from this memory (bytes/s)
system.mem_ctrls.bw_total::cpu09.dtb.walker            0                       # Total bandwidth to/from this memory (bytes/s)
system.mem_ctrls.bw_total::cpu09.itb.walker            0                       # Total bandwidth to/from this memory (bytes/s)
system.mem_ctrls.bw_total::cpu09.inst              48                       # Total bandwidth to/from this memory (bytes/s)
system.mem_ctrls.bw_total::cpu09.data             138                       # Total bandwidth to/from this memory (bytes/s)
system.mem_ctrls.bw_total::cpu11.dtb.walker            1                       # Total bandwidth to/from this memory (bytes/s)
system.mem_ctrls.bw_total::cpu11.itb.walker            0                       # Total bandwidth to/from this memory (bytes/s)
system.mem_ctrls.bw_total::cpu11.inst              73                       # Total bandwidth to/from this memory (bytes/s)
system.mem_ctrls.bw_total::cpu11.data             121                       # Total bandwidth to/from this memory (bytes/s)
system.mem_ctrls.bw_total::cpu12.dtb.walker            1                       # Total bandwidth to/from this memory (bytes/s)
system.mem_ctrls.bw_total::cpu12.itb.walker            0                       # Total bandwidth to/from this memory (bytes/s)
system.mem_ctrls.bw_total::cpu12.inst              94                       # Total bandwidth to/from this memory (bytes/s)
system.mem_ctrls.bw_total::cpu12.data             123                       # Total bandwidth to/from this memory (bytes/s)
system.mem_ctrls.bw_total::cpu13.dtb.walker           13                       # Total bandwidth to/from this memory (bytes/s)
system.mem_ctrls.bw_total::cpu13.itb.walker           17                       # Total bandwidth to/from this memory (bytes/s)
system.mem_ctrls.bw_total::cpu13.inst             409                       # Total bandwidth to/from this memory (bytes/s)
system.mem_ctrls.bw_total::cpu13.data             412                       # Total bandwidth to/from this memory (bytes/s)
system.mem_ctrls.bw_total::cpu14.dtb.walker          258                       # Total bandwidth to/from this memory (bytes/s)
system.mem_ctrls.bw_total::cpu14.itb.walker          201                       # Total bandwidth to/from this memory (bytes/s)
system.mem_ctrls.bw_total::cpu14.inst            3608                       # Total bandwidth to/from this memory (bytes/s)
system.mem_ctrls.bw_total::cpu14.data            3047                       # Total bandwidth to/from this memory (bytes/s)
system.mem_ctrls.bw_total::cpu15.dtb.walker           23                       # Total bandwidth to/from this memory (bytes/s)
system.mem_ctrls.bw_total::cpu15.itb.walker           28                       # Total bandwidth to/from this memory (bytes/s)
system.mem_ctrls.bw_total::cpu15.inst             518                       # Total bandwidth to/from this memory (bytes/s)
system.mem_ctrls.bw_total::cpu15.data             495                       # Total bandwidth to/from this memory (bytes/s)
system.mem_ctrls.bw_total::total                81331                       # Total bandwidth to/from this memory (bytes/s)
system.mem_ctrls.readReqs                           0                       # Number of read requests accepted
system.mem_ctrls.writeReqs                          0                       # Number of write requests accepted
system.mem_ctrls.readBursts                         0                       # Number of DRAM read bursts, including those serviced by the write queue
system.mem_ctrls.writeBursts                        0                       # Number of DRAM write bursts, including those merged in the write queue
system.mem_ctrls.bytesReadDRAM                      0                       # Total number of bytes read from DRAM
system.mem_ctrls.bytesReadWrQ                       0                       # Total number of bytes read from write queue
system.mem_ctrls.bytesWritten                       0                       # Total number of bytes written to DRAM
system.mem_ctrls.bytesReadSys                       0                       # Total read bytes from the system interface side
system.mem_ctrls.bytesWrittenSys                    0                       # Total written bytes from the system interface side
system.mem_ctrls.servicedByWrQ                      0                       # Number of DRAM read bursts serviced by the write queue
system.mem_ctrls.mergedWrBursts                     0                       # Number of DRAM write bursts merged with an existing one
system.mem_ctrls.neitherReadNorWriteReqs            0                       # Number of requests that are neither read nor write
system.mem_ctrls.perBankRdBursts::0                 0                       # Per bank write bursts
system.mem_ctrls.perBankRdBursts::1                 0                       # Per bank write bursts
system.mem_ctrls.perBankRdBursts::2                 0                       # Per bank write bursts
system.mem_ctrls.perBankRdBursts::3                 0                       # Per bank write bursts
system.mem_ctrls.perBankRdBursts::4                 0                       # Per bank write bursts
system.mem_ctrls.perBankRdBursts::5                 0                       # Per bank write bursts
system.mem_ctrls.perBankRdBursts::6                 0                       # Per bank write bursts
system.mem_ctrls.perBankRdBursts::7                 0                       # Per bank write bursts
system.mem_ctrls.perBankRdBursts::8                 0                       # Per bank write bursts
system.mem_ctrls.perBankRdBursts::9                 0                       # Per bank write bursts
system.mem_ctrls.perBankRdBursts::10                0                       # Per bank write bursts
system.mem_ctrls.perBankRdBursts::11                0                       # Per bank write bursts
system.mem_ctrls.perBankRdBursts::12                0                       # Per bank write bursts
system.mem_ctrls.perBankRdBursts::13                0                       # Per bank write bursts
system.mem_ctrls.perBankRdBursts::14                0                       # Per bank write bursts
system.mem_ctrls.perBankRdBursts::15                0                       # Per bank write bursts
system.mem_ctrls.perBankRdBursts::16                0                       # Per bank write bursts
system.mem_ctrls.perBankRdBursts::17                0                       # Per bank write bursts
system.mem_ctrls.perBankRdBursts::18                0                       # Per bank write bursts
system.mem_ctrls.perBankRdBursts::19                0                       # Per bank write bursts
system.mem_ctrls.perBankRdBursts::20                0                       # Per bank write bursts
system.mem_ctrls.perBankRdBursts::21                0                       # Per bank write bursts
system.mem_ctrls.perBankRdBursts::22                0                       # Per bank write bursts
system.mem_ctrls.perBankRdBursts::23                0                       # Per bank write bursts
system.mem_ctrls.perBankRdBursts::24                0                       # Per bank write bursts
system.mem_ctrls.perBankRdBursts::25                0                       # Per bank write bursts
system.mem_ctrls.perBankRdBursts::26                0                       # Per bank write bursts
system.mem_ctrls.perBankRdBursts::27                0                       # Per bank write bursts
system.mem_ctrls.perBankRdBursts::28                0                       # Per bank write bursts
system.mem_ctrls.perBankRdBursts::29                0                       # Per bank write bursts
system.mem_ctrls.perBankRdBursts::30                0                       # Per bank write bursts
system.mem_ctrls.perBankRdBursts::31                0                       # Per bank write bursts
system.mem_ctrls.perBankWrBursts::0                 0                       # Per bank write bursts
system.mem_ctrls.perBankWrBursts::1                 0                       # Per bank write bursts
system.mem_ctrls.perBankWrBursts::2                 0                       # Per bank write bursts
system.mem_ctrls.perBankWrBursts::3                 0                       # Per bank write bursts
system.mem_ctrls.perBankWrBursts::4                 0                       # Per bank write bursts
system.mem_ctrls.perBankWrBursts::5                 0                       # Per bank write bursts
system.mem_ctrls.perBankWrBursts::6                 0                       # Per bank write bursts
system.mem_ctrls.perBankWrBursts::7                 0                       # Per bank write bursts
system.mem_ctrls.perBankWrBursts::8                 0                       # Per bank write bursts
system.mem_ctrls.perBankWrBursts::9                 0                       # Per bank write bursts
system.mem_ctrls.perBankWrBursts::10                0                       # Per bank write bursts
system.mem_ctrls.perBankWrBursts::11                0                       # Per bank write bursts
system.mem_ctrls.perBankWrBursts::12                0                       # Per bank write bursts
system.mem_ctrls.perBankWrBursts::13                0                       # Per bank write bursts
system.mem_ctrls.perBankWrBursts::14                0                       # Per bank write bursts
system.mem_ctrls.perBankWrBursts::15                0                       # Per bank write bursts
system.mem_ctrls.perBankWrBursts::16                0                       # Per bank write bursts
system.mem_ctrls.perBankWrBursts::17                0                       # Per bank write bursts
system.mem_ctrls.perBankWrBursts::18                0                       # Per bank write bursts
system.mem_ctrls.perBankWrBursts::19                0                       # Per bank write bursts
system.mem_ctrls.perBankWrBursts::20                0                       # Per bank write bursts
system.mem_ctrls.perBankWrBursts::21                0                       # Per bank write bursts
system.mem_ctrls.perBankWrBursts::22                0                       # Per bank write bursts
system.mem_ctrls.perBankWrBursts::23                0                       # Per bank write bursts
system.mem_ctrls.perBankWrBursts::24                0                       # Per bank write bursts
system.mem_ctrls.perBankWrBursts::25                0                       # Per bank write bursts
system.mem_ctrls.perBankWrBursts::26                0                       # Per bank write bursts
system.mem_ctrls.perBankWrBursts::27                0                       # Per bank write bursts
system.mem_ctrls.perBankWrBursts::28                0                       # Per bank write bursts
system.mem_ctrls.perBankWrBursts::29                0                       # Per bank write bursts
system.mem_ctrls.perBankWrBursts::30                0                       # Per bank write bursts
system.mem_ctrls.perBankWrBursts::31                0                       # Per bank write bursts
system.mem_ctrls.numRdRetry                         0                       # Number of times read queue was full causing retry
system.mem_ctrls.numWrRetry                         0                       # Number of times write queue was full causing retry
system.mem_ctrls.totGap                             0                       # Total gap between requests
system.mem_ctrls.readPktSize::0                     0                       # Read request sizes (log2)
system.mem_ctrls.readPktSize::1                     0                       # Read request sizes (log2)
system.mem_ctrls.readPktSize::2                     0                       # Read request sizes (log2)
system.mem_ctrls.readPktSize::3                     0                       # Read request sizes (log2)
system.mem_ctrls.readPktSize::4                     0                       # Read request sizes (log2)
system.mem_ctrls.readPktSize::5                     0                       # Read request sizes (log2)
system.mem_ctrls.readPktSize::6                     0                       # Read request sizes (log2)
system.mem_ctrls.writePktSize::0                    0                       # Write request sizes (log2)
system.mem_ctrls.writePktSize::1                    0                       # Write request sizes (log2)
system.mem_ctrls.writePktSize::2                    0                       # Write request sizes (log2)
system.mem_ctrls.writePktSize::3                    0                       # Write request sizes (log2)
system.mem_ctrls.writePktSize::4                    0                       # Write request sizes (log2)
system.mem_ctrls.writePktSize::5                    0                       # Write request sizes (log2)
system.mem_ctrls.writePktSize::6                    0                       # Write request sizes (log2)
system.mem_ctrls.rdQLenPdf::0                       0                       # What read queue length does an incoming req see
system.mem_ctrls.rdQLenPdf::1                       0                       # What read queue length does an incoming req see
system.mem_ctrls.rdQLenPdf::2                       0                       # What read queue length does an incoming req see
system.mem_ctrls.rdQLenPdf::3                       0                       # What read queue length does an incoming req see
system.mem_ctrls.rdQLenPdf::4                       0                       # What read queue length does an incoming req see
system.mem_ctrls.rdQLenPdf::5                       0                       # What read queue length does an incoming req see
system.mem_ctrls.rdQLenPdf::6                       0                       # What read queue length does an incoming req see
system.mem_ctrls.rdQLenPdf::7                       0                       # What read queue length does an incoming req see
system.mem_ctrls.rdQLenPdf::8                       0                       # What read queue length does an incoming req see
system.mem_ctrls.rdQLenPdf::9                       0                       # What read queue length does an incoming req see
system.mem_ctrls.rdQLenPdf::10                      0                       # What read queue length does an incoming req see
system.mem_ctrls.rdQLenPdf::11                      0                       # What read queue length does an incoming req see
system.mem_ctrls.rdQLenPdf::12                      0                       # What read queue length does an incoming req see
system.mem_ctrls.rdQLenPdf::13                      0                       # What read queue length does an incoming req see
system.mem_ctrls.rdQLenPdf::14                      0                       # What read queue length does an incoming req see
system.mem_ctrls.rdQLenPdf::15                      0                       # What read queue length does an incoming req see
system.mem_ctrls.rdQLenPdf::16                      0                       # What read queue length does an incoming req see
system.mem_ctrls.rdQLenPdf::17                      0                       # What read queue length does an incoming req see
system.mem_ctrls.rdQLenPdf::18                      0                       # What read queue length does an incoming req see
system.mem_ctrls.rdQLenPdf::19                      0                       # What read queue length does an incoming req see
system.mem_ctrls.rdQLenPdf::20                      0                       # What read queue length does an incoming req see
system.mem_ctrls.rdQLenPdf::21                      0                       # What read queue length does an incoming req see
system.mem_ctrls.rdQLenPdf::22                      0                       # What read queue length does an incoming req see
system.mem_ctrls.rdQLenPdf::23                      0                       # What read queue length does an incoming req see
system.mem_ctrls.rdQLenPdf::24                      0                       # What read queue length does an incoming req see
system.mem_ctrls.rdQLenPdf::25                      0                       # What read queue length does an incoming req see
system.mem_ctrls.rdQLenPdf::26                      0                       # What read queue length does an incoming req see
system.mem_ctrls.rdQLenPdf::27                      0                       # What read queue length does an incoming req see
system.mem_ctrls.rdQLenPdf::28                      0                       # What read queue length does an incoming req see
system.mem_ctrls.rdQLenPdf::29                      0                       # What read queue length does an incoming req see
system.mem_ctrls.rdQLenPdf::30                      0                       # What read queue length does an incoming req see
system.mem_ctrls.rdQLenPdf::31                      0                       # What read queue length does an incoming req see
system.mem_ctrls.rdQLenPdf::32                      0                       # What read queue length does an incoming req see
system.mem_ctrls.rdQLenPdf::33                      0                       # What read queue length does an incoming req see
system.mem_ctrls.rdQLenPdf::34                      0                       # What read queue length does an incoming req see
system.mem_ctrls.rdQLenPdf::35                      0                       # What read queue length does an incoming req see
system.mem_ctrls.rdQLenPdf::36                      0                       # What read queue length does an incoming req see
system.mem_ctrls.rdQLenPdf::37                      0                       # What read queue length does an incoming req see
system.mem_ctrls.rdQLenPdf::38                      0                       # What read queue length does an incoming req see
system.mem_ctrls.rdQLenPdf::39                      0                       # What read queue length does an incoming req see
system.mem_ctrls.rdQLenPdf::40                      0                       # What read queue length does an incoming req see
system.mem_ctrls.rdQLenPdf::41                      0                       # What read queue length does an incoming req see
system.mem_ctrls.rdQLenPdf::42                      0                       # What read queue length does an incoming req see
system.mem_ctrls.rdQLenPdf::43                      0                       # What read queue length does an incoming req see
system.mem_ctrls.rdQLenPdf::44                      0                       # What read queue length does an incoming req see
system.mem_ctrls.rdQLenPdf::45                      0                       # What read queue length does an incoming req see
system.mem_ctrls.rdQLenPdf::46                      0                       # What read queue length does an incoming req see
system.mem_ctrls.rdQLenPdf::47                      0                       # What read queue length does an incoming req see
system.mem_ctrls.rdQLenPdf::48                      0                       # What read queue length does an incoming req see
system.mem_ctrls.rdQLenPdf::49                      0                       # What read queue length does an incoming req see
system.mem_ctrls.rdQLenPdf::50                      0                       # What read queue length does an incoming req see
system.mem_ctrls.rdQLenPdf::51                      0                       # What read queue length does an incoming req see
system.mem_ctrls.rdQLenPdf::52                      0                       # What read queue length does an incoming req see
system.mem_ctrls.rdQLenPdf::53                      0                       # What read queue length does an incoming req see
system.mem_ctrls.rdQLenPdf::54                      0                       # What read queue length does an incoming req see
system.mem_ctrls.rdQLenPdf::55                      0                       # What read queue length does an incoming req see
system.mem_ctrls.rdQLenPdf::56                      0                       # What read queue length does an incoming req see
system.mem_ctrls.rdQLenPdf::57                      0                       # What read queue length does an incoming req see
system.mem_ctrls.rdQLenPdf::58                      0                       # What read queue length does an incoming req see
system.mem_ctrls.rdQLenPdf::59                      0                       # What read queue length does an incoming req see
system.mem_ctrls.rdQLenPdf::60                      0                       # What read queue length does an incoming req see
system.mem_ctrls.rdQLenPdf::61                      0                       # What read queue length does an incoming req see
system.mem_ctrls.rdQLenPdf::62                      0                       # What read queue length does an incoming req see
system.mem_ctrls.rdQLenPdf::63                      0                       # What read queue length does an incoming req see
system.mem_ctrls.wrQLenPdf::0                       0                       # What write queue length does an incoming req see
system.mem_ctrls.wrQLenPdf::1                       0                       # What write queue length does an incoming req see
system.mem_ctrls.wrQLenPdf::2                       0                       # What write queue length does an incoming req see
system.mem_ctrls.wrQLenPdf::3                       0                       # What write queue length does an incoming req see
system.mem_ctrls.wrQLenPdf::4                       0                       # What write queue length does an incoming req see
system.mem_ctrls.wrQLenPdf::5                       0                       # What write queue length does an incoming req see
system.mem_ctrls.wrQLenPdf::6                       0                       # What write queue length does an incoming req see
system.mem_ctrls.wrQLenPdf::7                       0                       # What write queue length does an incoming req see
system.mem_ctrls.wrQLenPdf::8                       0                       # What write queue length does an incoming req see
system.mem_ctrls.wrQLenPdf::9                       0                       # What write queue length does an incoming req see
system.mem_ctrls.wrQLenPdf::10                      0                       # What write queue length does an incoming req see
system.mem_ctrls.wrQLenPdf::11                      0                       # What write queue length does an incoming req see
system.mem_ctrls.wrQLenPdf::12                      0                       # What write queue length does an incoming req see
system.mem_ctrls.wrQLenPdf::13                      0                       # What write queue length does an incoming req see
system.mem_ctrls.wrQLenPdf::14                      0                       # What write queue length does an incoming req see
system.mem_ctrls.wrQLenPdf::15                      0                       # What write queue length does an incoming req see
system.mem_ctrls.wrQLenPdf::16                      0                       # What write queue length does an incoming req see
system.mem_ctrls.wrQLenPdf::17                      0                       # What write queue length does an incoming req see
system.mem_ctrls.wrQLenPdf::18                      0                       # What write queue length does an incoming req see
system.mem_ctrls.wrQLenPdf::19                      0                       # What write queue length does an incoming req see
system.mem_ctrls.wrQLenPdf::20                      0                       # What write queue length does an incoming req see
system.mem_ctrls.wrQLenPdf::21                      0                       # What write queue length does an incoming req see
system.mem_ctrls.wrQLenPdf::22                      0                       # What write queue length does an incoming req see
system.mem_ctrls.wrQLenPdf::23                      0                       # What write queue length does an incoming req see
system.mem_ctrls.wrQLenPdf::24                      0                       # What write queue length does an incoming req see
system.mem_ctrls.wrQLenPdf::25                      0                       # What write queue length does an incoming req see
system.mem_ctrls.wrQLenPdf::26                      0                       # What write queue length does an incoming req see
system.mem_ctrls.wrQLenPdf::27                      0                       # What write queue length does an incoming req see
system.mem_ctrls.wrQLenPdf::28                      0                       # What write queue length does an incoming req see
system.mem_ctrls.wrQLenPdf::29                      0                       # What write queue length does an incoming req see
system.mem_ctrls.wrQLenPdf::30                      0                       # What write queue length does an incoming req see
system.mem_ctrls.wrQLenPdf::31                      0                       # What write queue length does an incoming req see
system.mem_ctrls.wrQLenPdf::32                      0                       # What write queue length does an incoming req see
system.mem_ctrls.wrQLenPdf::33                      0                       # What write queue length does an incoming req see
system.mem_ctrls.wrQLenPdf::34                      0                       # What write queue length does an incoming req see
system.mem_ctrls.wrQLenPdf::35                      0                       # What write queue length does an incoming req see
system.mem_ctrls.wrQLenPdf::36                      0                       # What write queue length does an incoming req see
system.mem_ctrls.wrQLenPdf::37                      0                       # What write queue length does an incoming req see
system.mem_ctrls.wrQLenPdf::38                      0                       # What write queue length does an incoming req see
system.mem_ctrls.wrQLenPdf::39                      0                       # What write queue length does an incoming req see
system.mem_ctrls.wrQLenPdf::40                      0                       # What write queue length does an incoming req see
system.mem_ctrls.wrQLenPdf::41                      0                       # What write queue length does an incoming req see
system.mem_ctrls.wrQLenPdf::42                      0                       # What write queue length does an incoming req see
system.mem_ctrls.wrQLenPdf::43                      0                       # What write queue length does an incoming req see
system.mem_ctrls.wrQLenPdf::44                      0                       # What write queue length does an incoming req see
system.mem_ctrls.wrQLenPdf::45                      0                       # What write queue length does an incoming req see
system.mem_ctrls.wrQLenPdf::46                      0                       # What write queue length does an incoming req see
system.mem_ctrls.wrQLenPdf::47                      0                       # What write queue length does an incoming req see
system.mem_ctrls.wrQLenPdf::48                      0                       # What write queue length does an incoming req see
system.mem_ctrls.wrQLenPdf::49                      0                       # What write queue length does an incoming req see
system.mem_ctrls.wrQLenPdf::50                      0                       # What write queue length does an incoming req see
system.mem_ctrls.wrQLenPdf::51                      0                       # What write queue length does an incoming req see
system.mem_ctrls.wrQLenPdf::52                      0                       # What write queue length does an incoming req see
system.mem_ctrls.wrQLenPdf::53                      0                       # What write queue length does an incoming req see
system.mem_ctrls.wrQLenPdf::54                      0                       # What write queue length does an incoming req see
system.mem_ctrls.wrQLenPdf::55                      0                       # What write queue length does an incoming req see
system.mem_ctrls.wrQLenPdf::56                      0                       # What write queue length does an incoming req see
system.mem_ctrls.wrQLenPdf::57                      0                       # What write queue length does an incoming req see
system.mem_ctrls.wrQLenPdf::58                      0                       # What write queue length does an incoming req see
system.mem_ctrls.wrQLenPdf::59                      0                       # What write queue length does an incoming req see
system.mem_ctrls.wrQLenPdf::60                      0                       # What write queue length does an incoming req see
system.mem_ctrls.wrQLenPdf::61                      0                       # What write queue length does an incoming req see
system.mem_ctrls.wrQLenPdf::62                      0                       # What write queue length does an incoming req see
system.mem_ctrls.wrQLenPdf::63                      0                       # What write queue length does an incoming req see
system.mem_ctrls.wrQLenPdf::64                      0                       # What write queue length does an incoming req see
system.mem_ctrls.wrQLenPdf::65                      0                       # What write queue length does an incoming req see
system.mem_ctrls.wrQLenPdf::66                      0                       # What write queue length does an incoming req see
system.mem_ctrls.wrQLenPdf::67                      0                       # What write queue length does an incoming req see
system.mem_ctrls.wrQLenPdf::68                      0                       # What write queue length does an incoming req see
system.mem_ctrls.wrQLenPdf::69                      0                       # What write queue length does an incoming req see
system.mem_ctrls.wrQLenPdf::70                      0                       # What write queue length does an incoming req see
system.mem_ctrls.wrQLenPdf::71                      0                       # What write queue length does an incoming req see
system.mem_ctrls.wrQLenPdf::72                      0                       # What write queue length does an incoming req see
system.mem_ctrls.wrQLenPdf::73                      0                       # What write queue length does an incoming req see
system.mem_ctrls.wrQLenPdf::74                      0                       # What write queue length does an incoming req see
system.mem_ctrls.wrQLenPdf::75                      0                       # What write queue length does an incoming req see
system.mem_ctrls.wrQLenPdf::76                      0                       # What write queue length does an incoming req see
system.mem_ctrls.wrQLenPdf::77                      0                       # What write queue length does an incoming req see
system.mem_ctrls.wrQLenPdf::78                      0                       # What write queue length does an incoming req see
system.mem_ctrls.wrQLenPdf::79                      0                       # What write queue length does an incoming req see
system.mem_ctrls.wrQLenPdf::80                      0                       # What write queue length does an incoming req see
system.mem_ctrls.wrQLenPdf::81                      0                       # What write queue length does an incoming req see
system.mem_ctrls.wrQLenPdf::82                      0                       # What write queue length does an incoming req see
system.mem_ctrls.wrQLenPdf::83                      0                       # What write queue length does an incoming req see
system.mem_ctrls.wrQLenPdf::84                      0                       # What write queue length does an incoming req see
system.mem_ctrls.wrQLenPdf::85                      0                       # What write queue length does an incoming req see
system.mem_ctrls.wrQLenPdf::86                      0                       # What write queue length does an incoming req see
system.mem_ctrls.wrQLenPdf::87                      0                       # What write queue length does an incoming req see
system.mem_ctrls.wrQLenPdf::88                      0                       # What write queue length does an incoming req see
system.mem_ctrls.wrQLenPdf::89                      0                       # What write queue length does an incoming req see
system.mem_ctrls.wrQLenPdf::90                      0                       # What write queue length does an incoming req see
system.mem_ctrls.wrQLenPdf::91                      0                       # What write queue length does an incoming req see
system.mem_ctrls.wrQLenPdf::92                      0                       # What write queue length does an incoming req see
system.mem_ctrls.wrQLenPdf::93                      0                       # What write queue length does an incoming req see
system.mem_ctrls.wrQLenPdf::94                      0                       # What write queue length does an incoming req see
system.mem_ctrls.wrQLenPdf::95                      0                       # What write queue length does an incoming req see
system.mem_ctrls.wrQLenPdf::96                      0                       # What write queue length does an incoming req see
system.mem_ctrls.wrQLenPdf::97                      0                       # What write queue length does an incoming req see
system.mem_ctrls.wrQLenPdf::98                      0                       # What write queue length does an incoming req see
system.mem_ctrls.wrQLenPdf::99                      0                       # What write queue length does an incoming req see
system.mem_ctrls.wrQLenPdf::100                     0                       # What write queue length does an incoming req see
system.mem_ctrls.wrQLenPdf::101                     0                       # What write queue length does an incoming req see
system.mem_ctrls.wrQLenPdf::102                     0                       # What write queue length does an incoming req see
system.mem_ctrls.wrQLenPdf::103                     0                       # What write queue length does an incoming req see
system.mem_ctrls.wrQLenPdf::104                     0                       # What write queue length does an incoming req see
system.mem_ctrls.wrQLenPdf::105                     0                       # What write queue length does an incoming req see
system.mem_ctrls.wrQLenPdf::106                     0                       # What write queue length does an incoming req see
system.mem_ctrls.wrQLenPdf::107                     0                       # What write queue length does an incoming req see
system.mem_ctrls.wrQLenPdf::108                     0                       # What write queue length does an incoming req see
system.mem_ctrls.wrQLenPdf::109                     0                       # What write queue length does an incoming req see
system.mem_ctrls.wrQLenPdf::110                     0                       # What write queue length does an incoming req see
system.mem_ctrls.wrQLenPdf::111                     0                       # What write queue length does an incoming req see
system.mem_ctrls.wrQLenPdf::112                     0                       # What write queue length does an incoming req see
system.mem_ctrls.wrQLenPdf::113                     0                       # What write queue length does an incoming req see
system.mem_ctrls.wrQLenPdf::114                     0                       # What write queue length does an incoming req see
system.mem_ctrls.wrQLenPdf::115                     0                       # What write queue length does an incoming req see
system.mem_ctrls.wrQLenPdf::116                     0                       # What write queue length does an incoming req see
system.mem_ctrls.wrQLenPdf::117                     0                       # What write queue length does an incoming req see
system.mem_ctrls.wrQLenPdf::118                     0                       # What write queue length does an incoming req see
system.mem_ctrls.wrQLenPdf::119                     0                       # What write queue length does an incoming req see
system.mem_ctrls.wrQLenPdf::120                     0                       # What write queue length does an incoming req see
system.mem_ctrls.wrQLenPdf::121                     0                       # What write queue length does an incoming req see
system.mem_ctrls.wrQLenPdf::122                     0                       # What write queue length does an incoming req see
system.mem_ctrls.wrQLenPdf::123                     0                       # What write queue length does an incoming req see
system.mem_ctrls.wrQLenPdf::124                     0                       # What write queue length does an incoming req see
system.mem_ctrls.wrQLenPdf::125                     0                       # What write queue length does an incoming req see
system.mem_ctrls.wrQLenPdf::126                     0                       # What write queue length does an incoming req see
system.mem_ctrls.wrQLenPdf::127                     0                       # What write queue length does an incoming req see
system.mem_ctrls.totQLat                            0                       # Total ticks spent queuing
system.mem_ctrls.totMemAccLat                       0                       # Total ticks spent from burst creation until serviced by the DRAM
system.mem_ctrls.totBusLat                          0                       # Total ticks spent in databus transfers
system.mem_ctrls.avgQLat                          nan                       # Average queueing delay per DRAM burst
system.mem_ctrls.avgBusLat                        nan                       # Average bus latency per DRAM burst
system.mem_ctrls.avgMemAccLat                     nan                       # Average memory access latency per DRAM burst
system.mem_ctrls.avgRdBW                         0.00                       # Average DRAM read bandwidth in MiByte/s
system.mem_ctrls.avgWrBW                         0.00                       # Average achieved write bandwidth in MiByte/s
system.mem_ctrls.avgRdBWSys                      0.00                       # Average system read bandwidth in MiByte/s
system.mem_ctrls.avgWrBWSys                      0.00                       # Average system write bandwidth in MiByte/s
system.mem_ctrls.peakBW                      19207.00                       # Theoretical peak bandwidth in MiByte/s
system.mem_ctrls.busUtil                         0.00                       # Data bus utilization in percentage
system.mem_ctrls.busUtilRead                     0.00                       # Data bus utilization in percentage for reads
system.mem_ctrls.busUtilWrite                    0.00                       # Data bus utilization in percentage for writes
system.mem_ctrls.avgRdQLen                       0.00                       # Average read queue length when enqueuing
system.mem_ctrls.avgWrQLen                       0.00                       # Average write queue length when enqueuing
system.mem_ctrls.readRowHits                        0                       # Number of row buffer hits during reads
system.mem_ctrls.writeRowHits                       0                       # Number of row buffer hits during writes
system.mem_ctrls.readRowHitRate                   nan                       # Row buffer hit rate for reads
system.mem_ctrls.writeRowHitRate                  nan                       # Row buffer hit rate for writes
system.mem_ctrls.avgGap                           nan                       # Average gap between requests
system.mem_ctrls.pageHitRate                      nan                       # Row buffer hit rate, read and write combined
system.mem_ctrls_0.actEnergy                        0                       # Energy for activate commands per rank (pJ)
system.mem_ctrls_0.preEnergy                        0                       # Energy for precharge commands per rank (pJ)
system.mem_ctrls_0.readEnergy                       0                       # Energy for read commands per rank (pJ)
system.mem_ctrls_0.writeEnergy                      0                       # Energy for write commands per rank (pJ)
system.mem_ctrls_0.refreshEnergy                    0                       # Energy for refresh commands per rank (pJ)
system.mem_ctrls_0.actBackEnergy                    0                       # Energy for active background per rank (pJ)
system.mem_ctrls_0.preBackEnergy         464053975011416.062500                       # Energy for precharge background per rank (pJ)
system.mem_ctrls_0.actPowerDownEnergy               0                       # Energy for active power-down per rank (pJ)
system.mem_ctrls_0.prePowerDownEnergy               0                       # Energy for precharge power-down per rank (pJ)
system.mem_ctrls_0.selfRefreshEnergy                0                       # Energy for self refresh per rank (pJ)
system.mem_ctrls_0.totalEnergy           464053975011416.062500                       # Total energy per rank (pJ)
system.mem_ctrls_0.averagePower            163.200000                       # Core power per rank (mW)
system.mem_ctrls_0.totalIdleTime                    0                       # Total Idle time Per DRAM Rank
system.mem_ctrls_0.memoryStateTime::IDLE 9590591038919500                       # Time in different power states
system.mem_ctrls_0.memoryStateTime::REF             0                       # Time in different power states
system.mem_ctrls_0.memoryStateTime::SREF            0                       # Time in different power states
system.mem_ctrls_0.memoryStateTime::PRE_PDN            0                       # Time in different power states
system.mem_ctrls_0.memoryStateTime::ACT             0                       # Time in different power states
system.mem_ctrls_0.memoryStateTime::ACT_PDN            0                       # Time in different power states
system.mem_ctrls_1.actEnergy                        0                       # Energy for activate commands per rank (pJ)
system.mem_ctrls_1.preEnergy                        0                       # Energy for precharge commands per rank (pJ)
system.mem_ctrls_1.readEnergy                       0                       # Energy for read commands per rank (pJ)
system.mem_ctrls_1.writeEnergy                      0                       # Energy for write commands per rank (pJ)
system.mem_ctrls_1.refreshEnergy                    0                       # Energy for refresh commands per rank (pJ)
system.mem_ctrls_1.actBackEnergy                    0                       # Energy for active background per rank (pJ)
system.mem_ctrls_1.preBackEnergy         464053975011416.062500                       # Energy for precharge background per rank (pJ)
system.mem_ctrls_1.actPowerDownEnergy               0                       # Energy for active power-down per rank (pJ)
system.mem_ctrls_1.prePowerDownEnergy               0                       # Energy for precharge power-down per rank (pJ)
system.mem_ctrls_1.selfRefreshEnergy                0                       # Energy for self refresh per rank (pJ)
system.mem_ctrls_1.totalEnergy           464053975011416.062500                       # Total energy per rank (pJ)
system.mem_ctrls_1.averagePower            163.200000                       # Core power per rank (mW)
system.mem_ctrls_1.totalIdleTime                    0                       # Total Idle time Per DRAM Rank
system.mem_ctrls_1.memoryStateTime::IDLE 9590591038919500                       # Time in different power states
system.mem_ctrls_1.memoryStateTime::REF             0                       # Time in different power states
system.mem_ctrls_1.memoryStateTime::SREF            0                       # Time in different power states
system.mem_ctrls_1.memoryStateTime::PRE_PDN            0                       # Time in different power states
system.mem_ctrls_1.memoryStateTime::ACT             0                       # Time in different power states
system.mem_ctrls_1.memoryStateTime::ACT_PDN            0                       # Time in different power states
system.mem_ctrls_2.actEnergy                        0                       # Energy for activate commands per rank (pJ)
system.mem_ctrls_2.preEnergy                        0                       # Energy for precharge commands per rank (pJ)
system.mem_ctrls_2.readEnergy                       0                       # Energy for read commands per rank (pJ)
system.mem_ctrls_2.writeEnergy                      0                       # Energy for write commands per rank (pJ)
system.mem_ctrls_2.refreshEnergy                    0                       # Energy for refresh commands per rank (pJ)
system.mem_ctrls_2.actBackEnergy                    0                       # Energy for active background per rank (pJ)
system.mem_ctrls_2.preBackEnergy         464053975011416.062500                       # Energy for precharge background per rank (pJ)
system.mem_ctrls_2.actPowerDownEnergy               0                       # Energy for active power-down per rank (pJ)
system.mem_ctrls_2.prePowerDownEnergy               0                       # Energy for precharge power-down per rank (pJ)
system.mem_ctrls_2.selfRefreshEnergy                0                       # Energy for self refresh per rank (pJ)
[...]
system.tol2bus1.directResponses                     0                       # auxiliar stat for checking how reasonable wireless model is
system.tol2bus2.snoop_filter.tot_requests       272044                       # Total number of requests made to the snoop filter.
system.tol2bus2.snoop_filter.hit_single_requests       134204                       # Number of requests hitting in the snoop filter with a single holder of the requested data.
system.tol2bus2.snoop_filter.hit_multi_requests        19783                       # Number of requests hitting in the snoop filter with multiple (>1) holders of the requested data.
system.tol2bus2.snoop_filter.tot_snoops         67533                       # Total number of snoops made to the snoop filter.
system.tol2bus2.snoop_filter.hit_single_snoops        21219                       # Number of snoops hitting in the snoop filter with a single holder of the requested data.
system.tol2bus2.snoop_filter.hit_multi_snoops        46314                       # Number of snoops hitting in the snoop filter with multiple (>1) holders of the requested data.
system.tol2bus2.pwrStateResidencyTicks::UNDEFINED 9590591038919500                       # Cumulative time (in ticks) in various power states
system.tol2bus2.trans_dist::ReadReq             22621                       # Transaction distribution
system.tol2bus2.trans_dist::ReadResp           136816                       # Transaction distribution
system.tol2bus2.trans_dist::WriteReq               73                       # Transaction distribution
system.tol2bus2.trans_dist::WriteResp              73                       # Transaction distribution
system.tol2bus2.trans_dist::WritebackDirty        41003                       # Transaction distribution
system.tol2bus2.trans_dist::WritebackClean        59981                       # Transaction distribution
system.tol2bus2.trans_dist::CleanEvict          27483                       # Transaction distribution
system.tol2bus2.trans_dist::UpgradeReq           1852                       # Transaction distribution
system.tol2bus2.trans_dist::SCUpgradeReq         2607                       # Transaction distribution
system.tol2bus2.trans_dist::UpgradeResp          4459                       # Transaction distribution
system.tol2bus2.trans_dist::ReadExReq           12742                       # Transaction distribution
system.tol2bus2.trans_dist::ReadExResp          12742                       # Transaction distribution
system.tol2bus2.trans_dist::ReadCleanReq        61517                       # Transaction distribution
system.tol2bus2.trans_dist::ReadSharedReq        52678                       # Transaction distribution
system.tol2bus2.trans_dist::InvalidateReq         6363                       # Transaction distribution
system.tol2bus2.trans_dist::InvalidateResp         6363                       # Transaction distribution
system.tol2bus2.pkt_count_system.cpu08.icache.mem_side::system.l22.cpu_side        92578                       # Packet count per connected master and slave (bytes)
system.tol2bus2.pkt_count_system.cpu08.dcache.mem_side::system.l22.cpu_side       104509                       # Packet count per connected master and slave (bytes)
system.tol2bus2.pkt_count_system.cpu08.itb.walker.dma::system.l22.cpu_side        17702                       # Packet count per connected master and slave (bytes)
system.tol2bus2.pkt_count_system.cpu08.dtb.walker.dma::system.l22.cpu_side         5298                       # Packet count per connected master and slave (bytes)
system.tol2bus2.pkt_count_system.cpu09.icache.mem_side::system.l22.cpu_side        26911                       # Packet count per connected master and slave (bytes)
system.tol2bus2.pkt_count_system.cpu09.dcache.mem_side::system.l22.cpu_side        49125                       # Packet count per connected master and slave (bytes)
system.tol2bus2.pkt_count_system.cpu09.itb.walker.dma::system.l22.cpu_side         4504                       # Packet count per connected master and slave (bytes)
system.tol2bus2.pkt_count_system.cpu09.dtb.walker.dma::system.l22.cpu_side         2318                       # Packet count per connected master and slave (bytes)
system.tol2bus2.pkt_count_system.cpu11.icache.mem_side::system.l22.cpu_side        63526                       # Packet count per connected master and slave (bytes)
system.tol2bus2.pkt_count_system.cpu11.dcache.mem_side::system.l22.cpu_side        67792                       # Packet count per connected master and slave (bytes)
system.tol2bus2.pkt_count_system.cpu11.itb.walker.dma::system.l22.cpu_side        11702                       # Packet count per connected master and slave (bytes)
system.tol2bus2.pkt_count_system.cpu11.dtb.walker.dma::system.l22.cpu_side         3408                       # Packet count per connected master and slave (bytes)
system.tol2bus2.pkt_count::total               449373                       # Packet count per connected master and slave (bytes)
system.tol2bus2.pkt_size_system.cpu08.icache.mem_side::system.l22.cpu_side      3939072                       # Cumulative packet size per connected master and slave (bytes)
system.tol2bus2.pkt_size_system.cpu08.dcache.mem_side::system.l22.cpu_side      3164856                       # Cumulative packet size per connected master and slave (bytes)
system.tol2bus2.pkt_size_system.cpu08.itb.walker.dma::system.l22.cpu_side        70808                       # Cumulative packet size per connected master and slave (bytes)
system.tol2bus2.pkt_size_system.cpu08.dtb.walker.dma::system.l22.cpu_side        21192                       # Cumulative packet size per connected master and slave (bytes)
system.tol2bus2.pkt_size_system.cpu09.icache.mem_side::system.l22.cpu_side      1137280                       # Cumulative packet size per connected master and slave (bytes)
system.tol2bus2.pkt_size_system.cpu09.dcache.mem_side::system.l22.cpu_side      1558080                       # Cumulative packet size per connected master and slave (bytes)
system.tol2bus2.pkt_size_system.cpu09.itb.walker.dma::system.l22.cpu_side        18016                       # Cumulative packet size per connected master and slave (bytes)
system.tol2bus2.pkt_size_system.cpu09.dtb.walker.dma::system.l22.cpu_side         9272                       # Cumulative packet size per connected master and slave (bytes)
system.tol2bus2.pkt_size_system.cpu11.icache.mem_side::system.l22.cpu_side      2699520                       # Cumulative packet size per connected master and slave (bytes)
system.tol2bus2.pkt_size_system.cpu11.dcache.mem_side::system.l22.cpu_side      2089048                       # Cumulative packet size per connected master and slave (bytes)
system.tol2bus2.pkt_size_system.cpu11.itb.walker.dma::system.l22.cpu_side        46808                       # Cumulative packet size per connected master and slave (bytes)
system.tol2bus2.pkt_size_system.cpu11.dtb.walker.dma::system.l22.cpu_side        13632                       # Cumulative packet size per connected master and slave (bytes)
system.tol2bus2.pkt_size::total              14767584                       # Cumulative packet size per connected master and slave (bytes)
system.tol2bus2.snoops                         234249                       # Total snoops (count)
system.tol2bus2.snoopTraffic                   686976                       # Total snoop traffic (bytes)
system.tol2bus2.snoop_fanout::samples          391100                       # Request fanout histogram
system.tol2bus2.snoop_fanout::mean           0.427502                       # Request fanout histogram
system.tol2bus2.snoop_fanout::stdev          0.881858                       # Request fanout histogram
system.tol2bus2.snoop_fanout::underflows            0      0.00%      0.00% # Request fanout histogram
system.tol2bus2.snoop_fanout::0                302163     77.26%     77.26% # Request fanout histogram
system.tol2bus2.snoop_fanout::1                 36633      9.37%     86.63% # Request fanout histogram
system.tol2bus2.snoop_fanout::2                 26349      6.74%     93.36% # Request fanout histogram
system.tol2bus2.snoop_fanout::3                 25955      6.64%    100.00% # Request fanout histogram
system.tol2bus2.snoop_fanout::4                     0      0.00%    100.00% # Request fanout histogram
system.tol2bus2.snoop_fanout::5                     0      0.00%    100.00% # Request fanout histogram
system.tol2bus2.snoop_fanout::6                     0      0.00%    100.00% # Request fanout histogram
system.tol2bus2.snoop_fanout::7                     0      0.00%    100.00% # Request fanout histogram
system.tol2bus2.snoop_fanout::8                     0      0.00%    100.00% # Request fanout histogram
system.tol2bus2.snoop_fanout::overflows             0      0.00%    100.00% # Request fanout histogram
system.tol2bus2.snoop_fanout::min_value             0                       # Request fanout histogram
system.tol2bus2.snoop_fanout::max_value             3                       # Request fanout histogram
system.tol2bus2.snoop_fanout::total            391100                       # Request fanout histogram
system.tol2bus2.directResponses                     0                       # auxiliar stat for checking how reasonable wireless model is
system.tol2bus3.snoop_filter.tot_requests     18818180                       # Total number of requests made to the snoop filter.
system.tol2bus3.snoop_filter.hit_single_requests      8746135                       # Number of requests hitting in the snoop filter with a single holder of the requested data.
system.tol2bus3.snoop_filter.hit_multi_requests      2029844                       # Number of requests hitting in the snoop filter with multiple (>1) holders of the requested data.
system.tol2bus3.snoop_filter.tot_snoops        237920                       # Total number of snoops made to the snoop filter.
system.tol2bus3.snoop_filter.hit_single_snoops       170344                       # Number of snoops hitting in the snoop filter with a single holder of the requested data.
system.tol2bus3.snoop_filter.hit_multi_snoops        67576                       # Number of snoops hitting in the snoop filter with multiple (>1) holders of the requested data.
system.tol2bus3.pwrStateResidencyTicks::UNDEFINED 9590591038919500                       # Cumulative time (in ticks) in various power states
system.tol2bus3.trans_dist::ReadReq           2669263                       # Transaction distribution
system.tol2bus3.trans_dist::ReadResp         11600632                       # Transaction distribution
system.tol2bus3.trans_dist::WriteReq             2408                       # Transaction distribution
system.tol2bus3.trans_dist::WriteResp            2408                       # Transaction distribution
system.tol2bus3.trans_dist::WritebackDirty      1083838                       # Transaction distribution
system.tol2bus3.trans_dist::WritebackClean      7275196                       # Transaction distribution
system.tol2bus3.trans_dist::CleanEvict        1004832                       # Transaction distribution
system.tol2bus3.trans_dist::UpgradeReq          23700                       # Transaction distribution
system.tol2bus3.trans_dist::SCUpgradeReq        19146                       # Transaction distribution
system.tol2bus3.trans_dist::UpgradeResp         42846                       # Transaction distribution
system.tol2bus3.trans_dist::ReadExReq          361059                       # Transaction distribution
system.tol2bus3.trans_dist::ReadExResp         361059                       # Transaction distribution
system.tol2bus3.trans_dist::ReadCleanReq      7277244                       # Transaction distribution
system.tol2bus3.trans_dist::ReadSharedReq      1654125                       # Transaction distribution
system.tol2bus3.trans_dist::InvalidateReq       114611                       # Transaction distribution
system.tol2bus3.trans_dist::InvalidateResp       114611                       # Transaction distribution
system.tol2bus3.pkt_count_system.cpu12.icache.mem_side::system.l23.cpu_side        61648                       # Packet count per connected master and slave (bytes)
system.tol2bus3.pkt_count_system.cpu12.dcache.mem_side::system.l23.cpu_side        64584                       # Packet count per connected master and slave (bytes)
system.tol2bus3.pkt_count_system.cpu12.itb.walker.dma::system.l23.cpu_side        10266                       # Packet count per connected master and slave (bytes)
system.tol2bus3.pkt_count_system.cpu12.dtb.walker.dma::system.l23.cpu_side         2700                       # Packet count per connected master and slave (bytes)
system.tol2bus3.pkt_count_system.cpu13.icache.mem_side::system.l23.cpu_side       972073                       # Packet count per connected master and slave (bytes)
system.tol2bus3.pkt_count_system.cpu13.dcache.mem_side::system.l23.cpu_side       389878                       # Packet count per connected master and slave (bytes)
system.tol2bus3.pkt_count_system.cpu13.itb.walker.dma::system.l23.cpu_side       205094                       # Packet count per connected master and slave (bytes)
system.tol2bus3.pkt_count_system.cpu13.dtb.walker.dma::system.l23.cpu_side       114538                       # Packet count per connected master and slave (bytes)
system.tol2bus3.pkt_count_system.cpu14.icache.mem_side::system.l23.cpu_side     19446361                       # Packet count per connected master and slave (bytes)
system.tol2bus3.pkt_count_system.cpu14.dcache.mem_side::system.l23.cpu_side      5449854                       # Packet count per connected master and slave (bytes)
system.tol2bus3.pkt_count_system.cpu14.itb.walker.dma::system.l23.cpu_side      3939974                       # Packet count per connected master and slave (bytes)
system.tol2bus3.pkt_count_system.cpu14.dtb.walker.dma::system.l23.cpu_side       643388                       # Packet count per connected master and slave (bytes)
system.tol2bus3.pkt_count_system.cpu15.icache.mem_side::system.l23.cpu_side      1349602                       # Packet count per connected master and slave (bytes)
system.tol2bus3.pkt_count_system.cpu15.dcache.mem_side::system.l23.cpu_side       540402                       # Packet count per connected master and slave (bytes)
system.tol2bus3.pkt_count_system.cpu15.itb.walker.dma::system.l23.cpu_side       279502                       # Packet count per connected master and slave (bytes)
system.tol2bus3.pkt_count_system.cpu15.dtb.walker.dma::system.l23.cpu_side       137114                       # Packet count per connected master and slave (bytes)
system.tol2bus3.pkt_count::total             33606978                       # Packet count per connected master and slave (bytes)
system.tol2bus3.pkt_size_system.cpu12.icache.mem_side::system.l23.cpu_side      2619392                       # Cumulative packet size per connected master and slave (bytes)
system.tol2bus3.pkt_size_system.cpu12.dcache.mem_side::system.l23.cpu_side      1873900                       # Cumulative packet size per connected master and slave (bytes)
system.tol2bus3.pkt_size_system.cpu12.itb.walker.dma::system.l23.cpu_side        41064                       # Cumulative packet size per connected master and slave (bytes)
system.tol2bus3.pkt_size_system.cpu12.dtb.walker.dma::system.l23.cpu_side        10800                       # Cumulative packet size per connected master and slave (bytes)
system.tol2bus3.pkt_size_system.cpu13.icache.mem_side::system.l23.cpu_side     41464192                       # Cumulative packet size per connected master and slave (bytes)
system.tol2bus3.pkt_size_system.cpu13.dcache.mem_side::system.l23.cpu_side     11300952                       # Cumulative packet size per connected master and slave (bytes)
system.tol2bus3.pkt_size_system.cpu13.itb.walker.dma::system.l23.cpu_side       820376                       # Cumulative packet size per connected master and slave (bytes)
system.tol2bus3.pkt_size_system.cpu13.dtb.walker.dma::system.l23.cpu_side       458152                       # Cumulative packet size per connected master and slave (bytes)
system.tol2bus3.pkt_size_system.cpu14.icache.mem_side::system.l23.cpu_side    829700480                       # Cumulative packet size per connected master and slave (bytes)
system.tol2bus3.pkt_size_system.cpu14.dcache.mem_side::system.l23.cpu_side    169458792                       # Cumulative packet size per connected master and slave (bytes)
system.tol2bus3.pkt_size_system.cpu14.itb.walker.dma::system.l23.cpu_side     15759896                       # Cumulative packet size per connected master and slave (bytes)
system.tol2bus3.pkt_size_system.cpu14.dtb.walker.dma::system.l23.cpu_side      2573552                       # Cumulative packet size per connected master and slave (bytes)
system.tol2bus3.pkt_size_system.cpu15.icache.mem_side::system.l23.cpu_side     57572096                       # Cumulative packet size per connected master and slave (bytes)
system.tol2bus3.pkt_size_system.cpu15.dcache.mem_side::system.l23.cpu_side     15725296                       # Cumulative packet size per connected master and slave (bytes)
system.tol2bus3.pkt_size_system.cpu15.itb.walker.dma::system.l23.cpu_side      1118008                       # Cumulative packet size per connected master and slave (bytes)
system.tol2bus3.pkt_size_system.cpu15.dtb.walker.dma::system.l23.cpu_side       548456                       # Cumulative packet size per connected master and slave (bytes)
system.tol2bus3.pkt_size::total            1151045404                       # Cumulative packet size per connected master and slave (bytes)
system.tol2bus3.snoops                         744173                       # Total snoops (count)
system.tol2bus3.snoopTraffic                  6605504                       # Total snoop traffic (bytes)
system.tol2bus3.snoop_fanout::samples        12821699                       # Request fanout histogram
system.tol2bus3.snoop_fanout::mean           0.216401                       # Request fanout histogram
system.tol2bus3.snoop_fanout::stdev          0.646944                       # Request fanout histogram
system.tol2bus3.snoop_fanout::underflows            0      0.00%      0.00% # Request fanout histogram
system.tol2bus3.snoop_fanout::0              11200452     87.36%     87.36% # Request fanout histogram
system.tol2bus3.snoop_fanout::1                888861      6.93%     94.29% # Request fanout histogram
system.tol2bus3.snoop_fanout::2                333078      2.60%     96.89% # Request fanout histogram
system.tol2bus3.snoop_fanout::3                377616      2.95%     99.83% # Request fanout histogram
system.tol2bus3.snoop_fanout::4                 21692      0.17%    100.00% # Request fanout histogram
system.tol2bus3.snoop_fanout::5                     0      0.00%    100.00% # Request fanout histogram
system.tol2bus3.snoop_fanout::6                     0      0.00%    100.00% # Request fanout histogram
system.tol2bus3.snoop_fanout::7                     0      0.00%    100.00% # Request fanout histogram
system.tol2bus3.snoop_fanout::8                     0      0.00%    100.00% # Request fanout histogram
system.tol2bus3.snoop_fanout::overflows             0      0.00%    100.00% # Request fanout histogram
system.tol2bus3.snoop_fanout::min_value             0                       # Request fanout histogram
system.tol2bus3.snoop_fanout::max_value             4                       # Request fanout histogram
system.tol2bus3.snoop_fanout::total          12821699                       # Request fanout histogram
system.tol2bus3.directResponses                     0                       # auxiliar stat for checking how reasonable wireless model is

---------- End Simulation Statistics   ----------
