
---------- Begin Simulation Statistics ----------
sim_seconds                               2843.468713                       # Number of seconds simulated
sim_ticks                                2843468712956000                       # Number of ticks simulated
final_tick                               9590591767737000                       # Number of ticks from beginning of simulation (restored from checkpoints and never reset)
sim_freq                                 1000000000000                       # Frequency of simulated ticks
host_inst_rate                                2274625                       # Simulator instruction rate (inst/s)
host_op_rate                                  2547574                       # Simulator op (including micro ops) rate (op/s)
host_tick_rate                           518893822250                       # Simulator tick rate (ticks/s)
host_mem_usage                                4906208                       # Number of bytes of host memory used
host_seconds                                  5479.87                       # Real time elapsed on the host
sim_insts                                 12464641593                       # Number of instructions simulated
sim_ops                                   13960362937                       # Number of ops (including micro ops) simulated
system.voltage_domain.voltage                       1                       # Voltage in Volts
system.clk_domain.clock                           625                       # Clock period in ticks
system.bootmem.pwrStateResidencyTicks::UNDEFINED 9590591767737000                       # Cumulative time (in ticks) in various power states
system.mem_ctrls.pwrStateResidencyTicks::UNDEFINED 9590591767737000                       # Cumulative time (in ticks) in various power states
system.mem_ctrls.bytes_read::cpu00.dtb.walker       203200                       # Number of bytes read from this memory
system.mem_ctrls.bytes_read::cpu00.itb.walker        70208                       # Number of bytes read from this memory
system.mem_ctrls.bytes_read::cpu00.inst       3034944                       # Number of bytes read from this memory
system.mem_ctrls.bytes_read::cpu00.data      16632640                       # Number of bytes read from this memory
system.mem_ctrls.bytes_read::cpu01.dtb.walker       109824                       # Number of bytes read from this memory
system.mem_ctrls.bytes_read::cpu01.itb.walker        30336                       # Number of bytes read from this memory
system.mem_ctrls.bytes_read::cpu01.inst        705600                       # Number of bytes read from this memory
system.mem_ctrls.bytes_read::cpu01.data      14751744                       # Number of bytes read from this memory
system.mem_ctrls.bytes_read::cpu02.dtb.walker       169344                       # Number of bytes read from this memory
system.mem_ctrls.bytes_read::cpu02.itb.walker        94528                       # Number of bytes read from this memory
system.mem_ctrls.bytes_read::cpu02.inst       4674496                       # Number of bytes read from this memory
system.mem_ctrls.bytes_read::cpu02.data      16228352                       # Number of bytes read from this memory
system.mem_ctrls.bytes_read::cpu03.dtb.walker       143296                       # Number of bytes read from this memory
system.mem_ctrls.bytes_read::cpu03.itb.walker        36864                       # Number of bytes read from this memory
system.mem_ctrls.bytes_read::cpu03.inst       1375488                       # Number of bytes read from this memory
system.mem_ctrls.bytes_read::cpu03.data      14996672                       # Number of bytes read from this memory
system.mem_ctrls.bytes_read::cpu04.dtb.walker       190400                       # Number of bytes read from this memory
system.mem_ctrls.bytes_read::cpu04.itb.walker        91328                       # Number of bytes read from this memory
system.mem_ctrls.bytes_read::cpu04.inst       1415808                       # Number of bytes read from this memory
system.mem_ctrls.bytes_read::cpu04.data      13185856                       # Number of bytes read from this memory
system.mem_ctrls.bytes_read::cpu05.dtb.walker       181568                       # Number of bytes read from this memory
system.mem_ctrls.bytes_read::cpu05.itb.walker        40896                       # Number of bytes read from this memory
system.mem_ctrls.bytes_read::cpu05.inst        634752                       # Number of bytes read from this memory
system.mem_ctrls.bytes_read::cpu05.data      12857536                       # Number of bytes read from this memory
system.mem_ctrls.bytes_read::cpu06.dtb.walker       143680                       # Number of bytes read from this memory
system.mem_ctrls.bytes_read::cpu06.itb.walker        23616                       # Number of bytes read from this memory
system.mem_ctrls.bytes_read::cpu06.inst        670464                       # Number of bytes read from this memory
system.mem_ctrls.bytes_read::cpu06.data      12517504                       # Number of bytes read from this memory
system.mem_ctrls.bytes_read::cpu07.dtb.walker       120704                       # Number of bytes read from this memory
system.mem_ctrls.bytes_read::cpu07.itb.walker        22976                       # Number of bytes read from this memory
system.mem_ctrls.bytes_read::cpu07.inst        690624                       # Number of bytes read from this memory
system.mem_ctrls.bytes_read::cpu07.data      12652096                       # Number of bytes read from this memory
system.mem_ctrls.bytes_read::cpu08.dtb.walker       125632                       # Number of bytes read from this memory
system.mem_ctrls.bytes_read::cpu08.itb.walker        93632                       # Number of bytes read from this memory
system.mem_ctrls.bytes_read::cpu08.inst       1522880                       # Number of bytes read from this memory
system.mem_ctrls.bytes_read::cpu08.data      14253632                       # Number of bytes read from this memory
system.mem_ctrls.bytes_read::cpu09.dtb.walker       171904                       # Number of bytes read from this memory
system.mem_ctrls.bytes_read::cpu09.itb.walker        44608                       # Number of bytes read from this memory
system.mem_ctrls.bytes_read::cpu09.inst       1049216                       # Number of bytes read from this memory
system.mem_ctrls.bytes_read::cpu09.data      13752128                       # Number of bytes read from this memory
system.mem_ctrls.bytes_read::cpu10.dtb.walker       122432                       # Number of bytes read from this memory
system.mem_ctrls.bytes_read::cpu10.itb.walker        32000                       # Number of bytes read from this memory
system.mem_ctrls.bytes_read::cpu10.inst        606976                       # Number of bytes read from this memory
system.mem_ctrls.bytes_read::cpu10.data      12125376                       # Number of bytes read from this memory
system.mem_ctrls.bytes_read::cpu11.dtb.walker       175360                       # Number of bytes read from this memory
system.mem_ctrls.bytes_read::cpu11.itb.walker        38336                       # Number of bytes read from this memory
system.mem_ctrls.bytes_read::cpu11.inst       1076224                       # Number of bytes read from this memory
system.mem_ctrls.bytes_read::cpu11.data      13962880                       # Number of bytes read from this memory
system.mem_ctrls.bytes_read::cpu12.dtb.walker       174656                       # Number of bytes read from this memory
system.mem_ctrls.bytes_read::cpu12.itb.walker        43200                       # Number of bytes read from this memory
system.mem_ctrls.bytes_read::cpu12.inst        787584                       # Number of bytes read from this memory
system.mem_ctrls.bytes_read::cpu12.data      14356608                       # Number of bytes read from this memory
system.mem_ctrls.bytes_read::cpu13.dtb.walker       213824                       # Number of bytes read from this memory
system.mem_ctrls.bytes_read::cpu13.itb.walker       177024                       # Number of bytes read from this memory
system.mem_ctrls.bytes_read::cpu13.inst       2009344                       # Number of bytes read from this memory
system.mem_ctrls.bytes_read::cpu13.data      14352320                       # Number of bytes read from this memory
system.mem_ctrls.bytes_read::cpu14.dtb.walker       960896                       # Number of bytes read from this memory
system.mem_ctrls.bytes_read::cpu14.itb.walker       615360                       # Number of bytes read from this memory
system.mem_ctrls.bytes_read::cpu14.inst      10670208                       # Number of bytes read from this memory
system.mem_ctrls.bytes_read::cpu14.data      22010752                       # Number of bytes read from this memory
system.mem_ctrls.bytes_read::cpu15.dtb.walker       175488                       # Number of bytes read from this memory
system.mem_ctrls.bytes_read::cpu15.itb.walker        41088                       # Number of bytes read from this memory
system.mem_ctrls.bytes_read::cpu15.inst       1145088                       # Number of bytes read from this memory
system.mem_ctrls.bytes_read::cpu15.data      13703040                       # Number of bytes read from this memory
system.mem_ctrls.bytes_read::total          269287040                       # Number of bytes read from this memory
system.mem_ctrls.bytes_inst_read::cpu00.inst      3034944                       # Number of instructions bytes read from this memory
system.mem_ctrls.bytes_inst_read::cpu01.inst       705600                       # Number of instructions bytes read from this memory
system.mem_ctrls.bytes_inst_read::cpu02.inst      4674496                       # Number of instructions bytes read from this memory
system.mem_ctrls.bytes_inst_read::cpu03.inst      1375488                       # Number of instructions bytes read from this memory
system.mem_ctrls.bytes_inst_read::cpu04.inst      1415808                       # Number of instructions bytes read from this memory
system.mem_ctrls.bytes_inst_read::cpu05.inst       634752                       # Number of instructions bytes read from this memory
system.mem_ctrls.bytes_inst_read::cpu06.inst       670464                       # Number of instructions bytes read from this memory
system.mem_ctrls.bytes_inst_read::cpu07.inst       690624                       # Number of instructions bytes read from this memory
system.mem_ctrls.bytes_inst_read::cpu08.inst      1522880                       # Number of instructions bytes read from this memory
system.mem_ctrls.bytes_inst_read::cpu09.inst      1049216                       # Number of instructions bytes read from this memory
system.mem_ctrls.bytes_inst_read::cpu10.inst       606976                       # Number of instructions bytes read from this memory
system.mem_ctrls.bytes_inst_read::cpu11.inst      1076224                       # Number of instructions bytes read from this memory
system.mem_ctrls.bytes_inst_read::cpu12.inst       787584                       # Number of instructions bytes read from this memory
system.mem_ctrls.bytes_inst_read::cpu13.inst      2009344                       # Number of instructions bytes read from this memory
system.mem_ctrls.bytes_inst_read::cpu14.inst     10670208                       # Number of instructions bytes read from this memory
system.mem_ctrls.bytes_inst_read::cpu15.inst      1145088                       # Number of instructions bytes read from this memory
system.mem_ctrls.bytes_inst_read::total      32069696                       # Number of instructions bytes read from this memory
system.mem_ctrls.bytes_written::writebacks    155830784                       # Number of bytes written to this memory
system.mem_ctrls.bytes_written::total       155830784                       # Number of bytes written to this memory
system.mem_ctrls.num_reads::cpu00.dtb.walker         3175                       # Number of read requests responded to by this memory
system.mem_ctrls.num_reads::cpu00.itb.walker         1097                       # Number of read requests responded to by this memory
system.mem_ctrls.num_reads::cpu00.inst          47421                       # Number of read requests responded to by this memory
system.mem_ctrls.num_reads::cpu00.data         259885                       # Number of read requests responded to by this memory
system.mem_ctrls.num_reads::cpu01.dtb.walker         1716                       # Number of read requests responded to by this memory
system.mem_ctrls.num_reads::cpu01.itb.walker          474                       # Number of read requests responded to by this memory
system.mem_ctrls.num_reads::cpu01.inst          11025                       # Number of read requests responded to by this memory
system.mem_ctrls.num_reads::cpu01.data         230496                       # Number of read requests responded to by this memory
system.mem_ctrls.num_reads::cpu02.dtb.walker         2646                       # Number of read requests responded to by this memory
system.mem_ctrls.num_reads::cpu02.itb.walker         1477                       # Number of read requests responded to by this memory
system.mem_ctrls.num_reads::cpu02.inst          73039                       # Number of read requests responded to by this memory
system.mem_ctrls.num_reads::cpu02.data         253568                       # Number of read requests responded to by this memory
system.mem_ctrls.num_reads::cpu03.dtb.walker         2239                       # Number of read requests responded to by this memory
system.mem_ctrls.num_reads::cpu03.itb.walker          576                       # Number of read requests responded to by this memory
system.mem_ctrls.num_reads::cpu03.inst          21492                       # Number of read requests responded to by this memory
system.mem_ctrls.num_reads::cpu03.data         234323                       # Number of read requests responded to by this memory
system.mem_ctrls.num_reads::cpu04.dtb.walker         2975                       # Number of read requests responded to by this memory
system.mem_ctrls.num_reads::cpu04.itb.walker         1427                       # Number of read requests responded to by this memory
system.mem_ctrls.num_reads::cpu04.inst          22122                       # Number of read requests responded to by this memory
system.mem_ctrls.num_reads::cpu04.data         206029                       # Number of read requests responded to by this memory
system.mem_ctrls.num_reads::cpu05.dtb.walker         2837                       # Number of read requests responded to by this memory
system.mem_ctrls.num_reads::cpu05.itb.walker          639                       # Number of read requests responded to by this memory
system.mem_ctrls.num_reads::cpu05.inst           9918                       # Number of read requests responded to by this memory
system.mem_ctrls.num_reads::cpu05.data         200899                       # Number of read requests responded to by this memory
system.mem_ctrls.num_reads::cpu06.dtb.walker         2245                       # Number of read requests responded to by this memory
system.mem_ctrls.num_reads::cpu06.itb.walker          369                       # Number of read requests responded to by this memory
system.mem_ctrls.num_reads::cpu06.inst          10476                       # Number of read requests responded to by this memory
system.mem_ctrls.num_reads::cpu06.data         195586                       # Number of read requests responded to by this memory
system.mem_ctrls.num_reads::cpu07.dtb.walker         1886                       # Number of read requests responded to by this memory
system.mem_ctrls.num_reads::cpu07.itb.walker          359                       # Number of read requests responded to by this memory
system.mem_ctrls.num_reads::cpu07.inst          10791                       # Number of read requests responded to by this memory
system.mem_ctrls.num_reads::cpu07.data         197689                       # Number of read requests responded to by this memory
system.mem_ctrls.num_reads::cpu08.dtb.walker         1963                       # Number of read requests responded to by this memory
system.mem_ctrls.num_reads::cpu08.itb.walker         1463                       # Number of read requests responded to by this memory
system.mem_ctrls.num_reads::cpu08.inst          23795                       # Number of read requests responded to by this memory
system.mem_ctrls.num_reads::cpu08.data         222713                       # Number of read requests responded to by this memory
system.mem_ctrls.num_reads::cpu09.dtb.walker         2686                       # Number of read requests responded to by this memory
system.mem_ctrls.num_reads::cpu09.itb.walker          697                       # Number of read requests responded to by this memory
system.mem_ctrls.num_reads::cpu09.inst          16394                       # Number of read requests responded to by this memory
system.mem_ctrls.num_reads::cpu09.data         214877                       # Number of read requests responded to by this memory
system.mem_ctrls.num_reads::cpu10.dtb.walker         1913                       # Number of read requests responded to by this memory
system.mem_ctrls.num_reads::cpu10.itb.walker          500                       # Number of read requests responded to by this memory
system.mem_ctrls.num_reads::cpu10.inst           9484                       # Number of read requests responded to by this memory
system.mem_ctrls.num_reads::cpu10.data         189459                       # Number of read requests responded to by this memory
system.mem_ctrls.num_reads::cpu11.dtb.walker         2740                       # Number of read requests responded to by this memory
system.mem_ctrls.num_reads::cpu11.itb.walker          599                       # Number of read requests responded to by this memory
system.mem_ctrls.num_reads::cpu11.inst          16816                       # Number of read requests responded to by this memory
system.mem_ctrls.num_reads::cpu11.data         218170                       # Number of read requests responded to by this memory
system.mem_ctrls.num_reads::cpu12.dtb.walker         2729                       # Number of read requests responded to by this memory
system.mem_ctrls.num_reads::cpu12.itb.walker          675                       # Number of read requests responded to by this memory
system.mem_ctrls.num_reads::cpu12.inst          12306                       # Number of read requests responded to by this memory
system.mem_ctrls.num_reads::cpu12.data         224322                       # Number of read requests responded to by this memory
system.mem_ctrls.num_reads::cpu13.dtb.walker         3341                       # Number of read requests responded to by this memory
system.mem_ctrls.num_reads::cpu13.itb.walker         2766                       # Number of read requests responded to by this memory
system.mem_ctrls.num_reads::cpu13.inst          31396                       # Number of read requests responded to by this memory
system.mem_ctrls.num_reads::cpu13.data         224255                       # Number of read requests responded to by this memory
system.mem_ctrls.num_reads::cpu14.dtb.walker        15014                       # Number of read requests responded to by this memory
system.mem_ctrls.num_reads::cpu14.itb.walker         9615                       # Number of read requests responded to by this memory
system.mem_ctrls.num_reads::cpu14.inst         166722                       # Number of read requests responded to by this memory
system.mem_ctrls.num_reads::cpu14.data         343918                       # Number of read requests responded to by this memory
system.mem_ctrls.num_reads::cpu15.dtb.walker         2742                       # Number of read requests responded to by this memory
system.mem_ctrls.num_reads::cpu15.itb.walker          642                       # Number of read requests responded to by this memory
system.mem_ctrls.num_reads::cpu15.inst          17892                       # Number of read requests responded to by this memory
system.mem_ctrls.num_reads::cpu15.data         214110                       # Number of read requests responded to by this memory
system.mem_ctrls.num_reads::total             4207610                       # Number of read requests responded to by this memory
system.mem_ctrls.num_writes::writebacks       2434856                       # Number of write requests responded to by this memory
system.mem_ctrls.num_writes::total            2434856                       # Number of write requests responded to by this memory
system.mem_ctrls.bw_read::cpu00.dtb.walker           71                       # Total read bandwidth from this memory (bytes/s)
system.mem_ctrls.bw_read::cpu00.itb.walker           25                       # Total read bandwidth from this memory (bytes/s)
system.mem_ctrls.bw_read::cpu00.inst             1067                       # Total read bandwidth from this memory (bytes/s)
system.mem_ctrls.bw_read::cpu00.data             5849                       # Total read bandwidth from this memory (bytes/s)
system.mem_ctrls.bw_read::cpu01.dtb.walker           39                       # Total read bandwidth from this memory (bytes/s)
system.mem_ctrls.bw_read::cpu01.itb.walker           11                       # Total read bandwidth from this memory (bytes/s)
system.mem_ctrls.bw_read::cpu01.inst              248                       # Total read bandwidth from this memory (bytes/s)
system.mem_ctrls.bw_read::cpu01.data             5188                       # Total read bandwidth from this memory (bytes/s)
system.mem_ctrls.bw_read::cpu02.dtb.walker           60                       # Total read bandwidth from this memory (bytes/s)
system.mem_ctrls.bw_read::cpu02.itb.walker           33                       # Total read bandwidth from this memory (bytes/s)
system.mem_ctrls.bw_read::cpu02.inst             1644                       # Total read bandwidth from this memory (bytes/s)
system.mem_ctrls.bw_read::cpu02.data             5707                       # Total read bandwidth from this memory (bytes/s)
system.mem_ctrls.bw_read::cpu03.dtb.walker           50                       # Total read bandwidth from this memory (bytes/s)
system.mem_ctrls.bw_read::cpu03.itb.walker           13                       # Total read bandwidth from this memory (bytes/s)
system.mem_ctrls.bw_read::cpu03.inst              484                       # Total read bandwidth from this memory (bytes/s)
system.mem_ctrls.bw_read::cpu03.data             5274                       # Total read bandwidth from this memory (bytes/s)
system.mem_ctrls.bw_read::cpu04.dtb.walker           67                       # Total read bandwidth from this memory (bytes/s)
system.mem_ctrls.bw_read::cpu04.itb.walker           32                       # Total read bandwidth from this memory (bytes/s)
system.mem_ctrls.bw_read::cpu04.inst              498                       # Total read bandwidth from this memory (bytes/s)
system.mem_ctrls.bw_read::cpu04.data             4637                       # Total read bandwidth from this memory (bytes/s)
system.mem_ctrls.bw_read::cpu05.dtb.walker           64                       # Total read bandwidth from this memory (bytes/s)
system.mem_ctrls.bw_read::cpu05.itb.walker           14                       # Total read bandwidth from this memory (bytes/s)
system.mem_ctrls.bw_read::cpu05.inst              223                       # Total read bandwidth from this memory (bytes/s)
system.mem_ctrls.bw_read::cpu05.data             4522                       # Total read bandwidth from this memory (bytes/s)
system.mem_ctrls.bw_read::cpu06.dtb.walker           51                       # Total read bandwidth from this memory (bytes/s)
system.mem_ctrls.bw_read::cpu06.itb.walker            8                       # Total read bandwidth from this memory (bytes/s)
system.mem_ctrls.bw_read::cpu06.inst              236                       # Total read bandwidth from this memory (bytes/s)
system.mem_ctrls.bw_read::cpu06.data             4402                       # Total read bandwidth from this memory (bytes/s)
system.mem_ctrls.bw_read::cpu07.dtb.walker           42                       # Total read bandwidth from this memory (bytes/s)
system.mem_ctrls.bw_read::cpu07.itb.walker            8                       # Total read bandwidth from this memory (bytes/s)
system.mem_ctrls.bw_read::cpu07.inst              243                       # Total read bandwidth from this memory (bytes/s)
system.mem_ctrls.bw_read::cpu07.data             4450                       # Total read bandwidth from this memory (bytes/s)
system.mem_ctrls.bw_read::cpu08.dtb.walker           44                       # Total read bandwidth from this memory (bytes/s)
system.mem_ctrls.bw_read::cpu08.itb.walker           33                       # Total read bandwidth from this memory (bytes/s)
system.mem_ctrls.bw_read::cpu08.inst              536                       # Total read bandwidth from this memory (bytes/s)
system.mem_ctrls.bw_read::cpu08.data             5013                       # Total read bandwidth from this memory (bytes/s)
system.mem_ctrls.bw_read::cpu09.dtb.walker           60                       # Total read bandwidth from this memory (bytes/s)
system.mem_ctrls.bw_read::cpu09.itb.walker           16                       # Total read bandwidth from this memory (bytes/s)
system.mem_ctrls.bw_read::cpu09.inst              369                       # Total read bandwidth from this memory (bytes/s)
system.mem_ctrls.bw_read::cpu09.data             4836                       # Total read bandwidth from this memory (bytes/s)
system.mem_ctrls.bw_read::cpu10.dtb.walker           43                       # Total read bandwidth from this memory (bytes/s)
system.mem_ctrls.bw_read::cpu10.itb.walker           11                       # Total read bandwidth from this memory (bytes/s)
system.mem_ctrls.bw_read::cpu10.inst              213                       # Total read bandwidth from this memory (bytes/s)
system.mem_ctrls.bw_read::cpu10.data             4264                       # Total read bandwidth from this memory (bytes/s)
system.mem_ctrls.bw_read::cpu11.dtb.walker           62                       # Total read bandwidth from this memory (bytes/s)
system.mem_ctrls.bw_read::cpu11.itb.walker           13                       # Total read bandwidth from this memory (bytes/s)
system.mem_ctrls.bw_read::cpu11.inst              378                       # Total read bandwidth from this memory (bytes/s)
system.mem_ctrls.bw_read::cpu11.data             4911                       # Total read bandwidth from this memory (bytes/s)
system.mem_ctrls.bw_read::cpu12.dtb.walker           61                       # Total read bandwidth from this memory (bytes/s)
system.mem_ctrls.bw_read::cpu12.itb.walker           15                       # Total read bandwidth from this memory (bytes/s)
system.mem_ctrls.bw_read::cpu12.inst              277                       # Total read bandwidth from this memory (bytes/s)
system.mem_ctrls.bw_read::cpu12.data             5049                       # Total read bandwidth from this memory (bytes/s)
system.mem_ctrls.bw_read::cpu13.dtb.walker           75                       # Total read bandwidth from this memory (bytes/s)
system.mem_ctrls.bw_read::cpu13.itb.walker           62                       # Total read bandwidth from this memory (bytes/s)
system.mem_ctrls.bw_read::cpu13.inst              707                       # Total read bandwidth from this memory (bytes/s)
system.mem_ctrls.bw_read::cpu13.data             5047                       # Total read bandwidth from this memory (bytes/s)
system.mem_ctrls.bw_read::cpu14.dtb.walker          338                       # Total read bandwidth from this memory (bytes/s)
system.mem_ctrls.bw_read::cpu14.itb.walker          216                       # Total read bandwidth from this memory (bytes/s)
system.mem_ctrls.bw_read::cpu14.inst             3753                       # Total read bandwidth from this memory (bytes/s)
system.mem_ctrls.bw_read::cpu14.data             7741                       # Total read bandwidth from this memory (bytes/s)
system.mem_ctrls.bw_read::cpu15.dtb.walker           62                       # Total read bandwidth from this memory (bytes/s)
system.mem_ctrls.bw_read::cpu15.itb.walker           14                       # Total read bandwidth from this memory (bytes/s)
system.mem_ctrls.bw_read::cpu15.inst              403                       # Total read bandwidth from this memory (bytes/s)
system.mem_ctrls.bw_read::cpu15.data             4819                       # Total read bandwidth from this memory (bytes/s)
system.mem_ctrls.bw_read::total                 94704                       # Total read bandwidth from this memory (bytes/s)
system.mem_ctrls.bw_inst_read::cpu00.inst         1067                       # Instruction read bandwidth from this memory (bytes/s)
system.mem_ctrls.bw_inst_read::cpu01.inst          248                       # Instruction read bandwidth from this memory (bytes/s)
system.mem_ctrls.bw_inst_read::cpu02.inst         1644                       # Instruction read bandwidth from this memory (bytes/s)
system.mem_ctrls.bw_inst_read::cpu03.inst          484                       # Instruction read bandwidth from this memory (bytes/s)
system.mem_ctrls.bw_inst_read::cpu04.inst          498                       # Instruction read bandwidth from this memory (bytes/s)
system.mem_ctrls.bw_inst_read::cpu05.inst          223                       # Instruction read bandwidth from this memory (bytes/s)
system.mem_ctrls.bw_inst_read::cpu06.inst          236                       # Instruction read bandwidth from this memory (bytes/s)
system.mem_ctrls.bw_inst_read::cpu07.inst          243                       # Instruction read bandwidth from this memory (bytes/s)
system.mem_ctrls.bw_inst_read::cpu08.inst          536                       # Instruction read bandwidth from this memory (bytes/s)
system.mem_ctrls.bw_inst_read::cpu09.inst          369                       # Instruction read bandwidth from this memory (bytes/s)
system.mem_ctrls.bw_inst_read::cpu10.inst          213                       # Instruction read bandwidth from this memory (bytes/s)
system.mem_ctrls.bw_inst_read::cpu11.inst          378                       # Instruction read bandwidth from this memory (bytes/s)
system.mem_ctrls.bw_inst_read::cpu12.inst          277                       # Instruction read bandwidth from this memory (bytes/s)
system.mem_ctrls.bw_inst_read::cpu13.inst          707                       # Instruction read bandwidth from this memory (bytes/s)
system.mem_ctrls.bw_inst_read::cpu14.inst         3753                       # Instruction read bandwidth from this memory (bytes/s)
system.mem_ctrls.bw_inst_read::cpu15.inst          403                       # Instruction read bandwidth from this memory (bytes/s)
system.mem_ctrls.bw_inst_read::total            11278                       # Instruction read bandwidth from this memory (bytes/s)
system.mem_ctrls.bw_write::writebacks           54803                       # Write bandwidth from this memory (bytes/s)
system.mem_ctrls.bw_write::total                54803                       # Write bandwidth from this memory (bytes/s)
system.mem_ctrls.bw_total::writebacks           54803                       # Total bandwidth to/from this memory (bytes/s)
system.mem_ctrls.bw_total::cpu00.dtb.walker           71                       # Total bandwidth to/from this memory (bytes/s)
system.mem_ctrls.bw_total::cpu00.itb.walker           25                       # Total bandwidth to/from this memory (bytes/s)
system.mem_ctrls.bw_total::cpu00.inst            1067                       # Total bandwidth to/from this memory (bytes/s)
system.mem_ctrls.bw_total::cpu00.data            5849                       # Total bandwidth to/from this memory (bytes/s)
system.mem_ctrls.bw_total::cpu01.dtb.walker           39                       # Total bandwidth to/from this memory (bytes/s)
system.mem_ctrls.bw_total::cpu01.itb.walker           11                       # Total bandwidth to/from this memory (bytes/s)
system.mem_ctrls.bw_total::cpu01.inst             248                       # Total bandwidth to/from this memory (bytes/s)
system.mem_ctrls.bw_total::cpu01.data            5188                       # Total bandwidth to/from this memory (bytes/s)
system.mem_ctrls.bw_total::cpu02.dtb.walker           60                       # Total bandwidth to/from this memory (bytes/s)
system.mem_ctrls.bw_total::cpu02.itb.walker           33                       # Total bandwidth to/from this memory (bytes/s)
system.mem_ctrls.bw_total::cpu02.inst            1644                       # Total bandwidth to/from this memory (bytes/s)
system.mem_ctrls.bw_total::cpu02.data            5707                       # Total bandwidth to/from this memory (bytes/s)
system.mem_ctrls.bw_total::cpu03.dtb.walker           50                       # Total bandwidth to/from this memory (bytes/s)
system.mem_ctrls.bw_total::cpu03.itb.walker           13                       # Total bandwidth to/from this memory (bytes/s)
system.mem_ctrls.bw_total::cpu03.inst             484                       # Total bandwidth to/from this memory (bytes/s)
system.mem_ctrls.bw_total::cpu03.data            5274                       # Total bandwidth to/from this memory (bytes/s)
system.mem_ctrls.bw_total::cpu04.dtb.walker           67                       # Total bandwidth to/from this memory (bytes/s)
system.mem_ctrls.bw_total::cpu04.itb.walker           32                       # Total bandwidth to/from this memory (bytes/s)
system.mem_ctrls.bw_total::cpu04.inst             498                       # Total bandwidth to/from this memory (bytes/s)
system.mem_ctrls.bw_total::cpu04.data            4637                       # Total bandwidth to/from this memory (bytes/s)
system.mem_ctrls.bw_total::cpu05.dtb.walker           64                       # Total bandwidth to/from this memory (bytes/s)
system.mem_ctrls.bw_total::cpu05.itb.walker           14                       # Total bandwidth to/from this memory (bytes/s)
system.mem_ctrls.bw_total::cpu05.inst             223                       # Total bandwidth to/from this memory (bytes/s)
system.mem_ctrls.bw_total::cpu05.data            4522                       # Total bandwidth to/from this memory (bytes/s)
system.mem_ctrls.bw_total::cpu06.dtb.walker           51                       # Total bandwidth to/from this memory (bytes/s)
system.mem_ctrls.bw_total::cpu06.itb.walker            8                       # Total bandwidth to/from this memory (bytes/s)
system.mem_ctrls.bw_total::cpu06.inst             236                       # Total bandwidth to/from this memory (bytes/s)
system.mem_ctrls.bw_total::cpu06.data            4402                       # Total bandwidth to/from this memory (bytes/s)
system.mem_ctrls.bw_total::cpu07.dtb.walker           42                       # Total bandwidth to/from this memory (bytes/s)
system.mem_ctrls.bw_total::cpu07.itb.walker            8                       # Total bandwidth to/from this memory (bytes/s)
system.mem_ctrls.bw_total::cpu07.inst             243                       # Total bandwidth to/from this memory (bytes/s)
system.mem_ctrls.bw_total::cpu07.data            4450                       # Total bandwidth to/from this memory (bytes/s)
system.mem_ctrls.bw_total::cpu08.dtb.walker           44                       # Total bandwidth to/from this memory (bytes/s)
system.mem_ctrls.bw_total::cpu08.itb.walker           33                       # Total bandwidth to/from this memory (bytes/s)
system.mem_ctrls.bw_total::cpu08.inst             536                       # Total bandwidth to/from this memory (bytes/s)
system.mem_ctrls.bw_total::cpu08.data            5013                       # Total bandwidth to/from this memory (bytes/s)
system.mem_ctrls.bw_total::cpu09.dtb.walker           60                       # Total bandwidth to/from this memory (bytes/s)
system.mem_ctrls.bw_total::cpu09.itb.walker           16                       # Total bandwidth to/from this memory (bytes/s)
system.mem_ctrls.bw_total::cpu09.inst             369                       # Total bandwidth to/from this memory (bytes/s)
system.mem_ctrls.bw_total::cpu09.data            4836                       # Total bandwidth to/from this memory (bytes/s)
system.mem_ctrls.bw_total::cpu10.dtb.walker           43                       # Total bandwidth to/from this memory (bytes/s)
system.mem_ctrls.bw_total::cpu10.itb.walker           11                       # Total bandwidth to/from this memory (bytes/s)
system.mem_ctrls.bw_total::cpu10.inst             213                       # Total bandwidth to/from this memory (bytes/s)
system.mem_ctrls.bw_total::cpu10.data            4264                       # Total bandwidth to/from this memory (bytes/s)
system.mem_ctrls.bw_total::cpu11.dtb.walker           62                       # Total bandwidth to/from this memory (bytes/s)
system.mem_ctrls.bw_total::cpu11.itb.walker           13                       # Total bandwidth to/from this memory (bytes/s)
system.mem_ctrls.bw_total::cpu11.inst             378                       # Total bandwidth to/from this memory (bytes/s)
system.mem_ctrls.bw_total::cpu11.data            4911                       # Total bandwidth to/from this memory (bytes/s)
system.mem_ctrls.bw_total::cpu12.dtb.walker           61                       # Total bandwidth to/from this memory (bytes/s)
system.mem_ctrls.bw_total::cpu12.itb.walker           15                       # Total bandwidth to/from this memory (bytes/s)
system.mem_ctrls.bw_total::cpu12.inst             277                       # Total bandwidth to/from this memory (bytes/s)
system.mem_ctrls.bw_total::cpu12.data            5049                       # Total bandwidth to/from this memory (bytes/s)
system.mem_ctrls.bw_total::cpu13.dtb.walker           75                       # Total bandwidth to/from this memory (bytes/s)
system.mem_ctrls.bw_total::cpu13.itb.walker           62                       # Total bandwidth to/from this memory (bytes/s)
system.mem_ctrls.bw_total::cpu13.inst             707                       # Total bandwidth to/from this memory (bytes/s)
system.mem_ctrls.bw_total::cpu13.data            5047                       # Total bandwidth to/from this memory (bytes/s)
system.mem_ctrls.bw_total::cpu14.dtb.walker          338                       # Total bandwidth to/from this memory (bytes/s)
system.mem_ctrls.bw_total::cpu14.itb.walker          216                       # Total bandwidth to/from this memory (bytes/s)
system.mem_ctrls.bw_total::cpu14.inst            3753                       # Total bandwidth to/from this memory (bytes/s)
system.mem_ctrls.bw_total::cpu14.data            7741                       # Total bandwidth to/from this memory (bytes/s)
system.mem_ctrls.bw_total::cpu15.dtb.walker           62                       # Total bandwidth to/from this memory (bytes/s)
system.mem_ctrls.bw_total::cpu15.itb.walker           14                       # Total bandwidth to/from this memory (bytes/s)
system.mem_ctrls.bw_total::cpu15.inst             403                       # Total bandwidth to/from this memory (bytes/s)
system.mem_ctrls.bw_total::cpu15.data            4819                       # Total bandwidth to/from this memory (bytes/s)
system.mem_ctrls.bw_total::total               149507                       # Total bandwidth to/from this memory (bytes/s)
system.mem_ctrls.readReqs                           0                       # Number of read requests accepted
system.mem_ctrls.writeReqs                          0                       # Number of write requests accepted
system.mem_ctrls.readBursts                         0                       # Number of DRAM read bursts, including those serviced by the write queue
system.mem_ctrls.writeBursts                        0                       # Number of DRAM write bursts, including those merged in the write queue
system.mem_ctrls.bytesReadDRAM                      0                       # Total number of bytes read from DRAM
system.mem_ctrls.bytesReadWrQ                       0                       # Total number of bytes read from write queue
system.mem_ctrls.bytesWritten                       0                       # Total number of bytes written to DRAM
system.mem_ctrls.bytesReadSys                       0                       # Total read bytes from the system interface side
system.mem_ctrls.bytesWrittenSys                    0                       # Total written bytes from the system interface side
system.mem_ctrls.servicedByWrQ                      0                       # Number of DRAM read bursts serviced by the write queue
system.mem_ctrls.mergedWrBursts                     0                       # Number of DRAM write bursts merged with an existing one
system.mem_ctrls.neitherReadNorWriteReqs            0                       # Number of requests that are neither read nor write
system.mem_ctrls.perBankRdBursts::0                 0                       # Per bank write bursts
system.mem_ctrls.perBankRdBursts::1                 0                       # Per bank write bursts
system.mem_ctrls.perBankRdBursts::2                 0                       # Per bank write bursts
system.mem_ctrls.perBankRdBursts::3                 0                       # Per bank write bursts
system.mem_ctrls.perBankRdBursts::4                 0                       # Per bank write bursts
system.mem_ctrls.perBankRdBursts::5                 0                       # Per bank write bursts
system.mem_ctrls.perBankRdBursts::6                 0                       # Per bank write bursts
system.mem_ctrls.perBankRdBursts::7                 0                       # Per bank write bursts
system.mem_ctrls.perBankRdBursts::8                 0                       # Per bank write bursts
system.mem_ctrls.perBankRdBursts::9                 0                       # Per bank write bursts
system.mem_ctrls.perBankRdBursts::10                0                       # Per bank write bursts
system.mem_ctrls.perBankRdBursts::11                0                       # Per bank write bursts
system.mem_ctrls.perBankRdBursts::12                0                       # Per bank write bursts
system.mem_ctrls.perBankRdBursts::13                0                       # Per bank write bursts
system.mem_ctrls.perBankRdBursts::14                0                       # Per bank write bursts
system.mem_ctrls.perBankRdBursts::15                0                       # Per bank write bursts
system.mem_ctrls.perBankRdBursts::16                0                       # Per bank write bursts
system.mem_ctrls.perBankRdBursts::17                0                       # Per bank write bursts
system.mem_ctrls.perBankRdBursts::18                0                       # Per bank write bursts
system.mem_ctrls.perBankRdBursts::19                0                       # Per bank write bursts
system.mem_ctrls.perBankRdBursts::20                0                       # Per bank write bursts
system.mem_ctrls.perBankRdBursts::21                0                       # Per bank write bursts
system.mem_ctrls.perBankRdBursts::22                0                       # Per bank write bursts
system.mem_ctrls.perBankRdBursts::23                0                       # Per bank write bursts
system.mem_ctrls.perBankRdBursts::24                0                       # Per bank write bursts
system.mem_ctrls.perBankRdBursts::25                0                       # Per bank write bursts
system.mem_ctrls.perBankRdBursts::26                0                       # Per bank write bursts
system.mem_ctrls.perBankRdBursts::27                0                       # Per bank write bursts
system.mem_ctrls.perBankRdBursts::28                0                       # Per bank write bursts
system.mem_ctrls.perBankRdBursts::29                0                       # Per bank write bursts
system.mem_ctrls.perBankRdBursts::30                0                       # Per bank write bursts
system.mem_ctrls.perBankRdBursts::31                0                       # Per bank write bursts
system.mem_ctrls.perBankWrBursts::0                 0                       # Per bank write bursts
system.mem_ctrls.perBankWrBursts::1                 0                       # Per bank write bursts
system.mem_ctrls.perBankWrBursts::2                 0                       # Per bank write bursts
system.mem_ctrls.perBankWrBursts::3                 0                       # Per bank write bursts
system.mem_ctrls.perBankWrBursts::4                 0                       # Per bank write bursts
system.mem_ctrls.perBankWrBursts::5                 0                       # Per bank write bursts
system.mem_ctrls.perBankWrBursts::6                 0                       # Per bank write bursts
system.mem_ctrls.perBankWrBursts::7                 0                       # Per bank write bursts
system.mem_ctrls.perBankWrBursts::8                 0                       # Per bank write bursts
system.mem_ctrls.perBankWrBursts::9                 0                       # Per bank write bursts
system.mem_ctrls.perBankWrBursts::10                0                       # Per bank write bursts
system.mem_ctrls.perBankWrBursts::11                0                       # Per bank write bursts
system.mem_ctrls.perBankWrBursts::12                0                       # Per bank write bursts
system.mem_ctrls.perBankWrBursts::13                0                       # Per bank write bursts
system.mem_ctrls.perBankWrBursts::14                0                       # Per bank write bursts
system.mem_ctrls.perBankWrBursts::15                0                       # Per bank write bursts
system.mem_ctrls.perBankWrBursts::16                0                       # Per bank write bursts
system.mem_ctrls.perBankWrBursts::17                0                       # Per bank write bursts
system.mem_ctrls.perBankWrBursts::18                0                       # Per bank write bursts
system.mem_ctrls.perBankWrBursts::19                0                       # Per bank write bursts
system.mem_ctrls.perBankWrBursts::20                0                       # Per bank write bursts
system.mem_ctrls.perBankWrBursts::21                0                       # Per bank write bursts
system.mem_ctrls.perBankWrBursts::22                0                       # Per bank write bursts
system.mem_ctrls.perBankWrBursts::23                0                       # Per bank write bursts
system.mem_ctrls.perBankWrBursts::24                0                       # Per bank write bursts
system.mem_ctrls.perBankWrBursts::25                0                       # Per bank write bursts
system.mem_ctrls.perBankWrBursts::26                0                       # Per bank write bursts
system.mem_ctrls.perBankWrBursts::27                0                       # Per bank write bursts
system.mem_ctrls.perBankWrBursts::28                0                       # Per bank write bursts
system.mem_ctrls.perBankWrBursts::29                0                       # Per bank write bursts
system.mem_ctrls.perBankWrBursts::30                0                       # Per bank write bursts
system.mem_ctrls.perBankWrBursts::31                0                       # Per bank write bursts
system.mem_ctrls.numRdRetry                         0                       # Number of times read queue was full causing retry
system.mem_ctrls.numWrRetry                         0                       # Number of times write queue was full causing retry
system.mem_ctrls.totGap                             0                       # Total gap between requests
system.mem_ctrls.readPktSize::0                     0                       # Read request sizes (log2)
system.mem_ctrls.readPktSize::1                     0                       # Read request sizes (log2)
system.mem_ctrls.readPktSize::2                     0                       # Read request sizes (log2)
system.mem_ctrls.readPktSize::3                     0                       # Read request sizes (log2)
system.mem_ctrls.readPktSize::4                     0                       # Read request sizes (log2)
system.mem_ctrls.readPktSize::5                     0                       # Read request sizes (log2)
system.mem_ctrls.readPktSize::6                     0                       # Read request sizes (log2)
system.mem_ctrls.writePktSize::0                    0                       # Write request sizes (log2)
system.mem_ctrls.writePktSize::1                    0                       # Write request sizes (log2)
system.mem_ctrls.writePktSize::2                    0                       # Write request sizes (log2)
system.mem_ctrls.writePktSize::3                    0                       # Write request sizes (log2)
system.mem_ctrls.writePktSize::4                    0                       # Write request sizes (log2)
system.mem_ctrls.writePktSize::5                    0                       # Write request sizes (log2)
system.mem_ctrls.writePktSize::6                    0                       # Write request sizes (log2)
system.mem_ctrls.rdQLenPdf::0                       0                       # What read queue length does an incoming req see
system.mem_ctrls.rdQLenPdf::1                       0                       # What read queue length does an incoming req see
system.mem_ctrls.rdQLenPdf::2                       0                       # What read queue length does an incoming req see
system.mem_ctrls.rdQLenPdf::3                       0                       # What read queue length does an incoming req see
system.mem_ctrls.rdQLenPdf::4                       0                       # What read queue length does an incoming req see
system.mem_ctrls.rdQLenPdf::5                       0                       # What read queue length does an incoming req see
system.mem_ctrls.rdQLenPdf::6                       0                       # What read queue length does an incoming req see
system.mem_ctrls.rdQLenPdf::7                       0                       # What read queue length does an incoming req see
system.mem_ctrls.rdQLenPdf::8                       0                       # What read queue length does an incoming req see
system.mem_ctrls.rdQLenPdf::9                       0                       # What read queue length does an incoming req see
system.mem_ctrls.rdQLenPdf::10                      0                       # What read queue length does an incoming req see
system.mem_ctrls.rdQLenPdf::11                      0                       # What read queue length does an incoming req see
system.mem_ctrls.rdQLenPdf::12                      0                       # What read queue length does an incoming req see
system.mem_ctrls.rdQLenPdf::13                      0                       # What read queue length does an incoming req see
system.mem_ctrls.rdQLenPdf::14                      0                       # What read queue length does an incoming req see
system.mem_ctrls.rdQLenPdf::15                      0                       # What read queue length does an incoming req see
system.mem_ctrls.rdQLenPdf::16                      0                       # What read queue length does an incoming req see
system.mem_ctrls.rdQLenPdf::17                      0                       # What read queue length does an incoming req see
system.mem_ctrls.rdQLenPdf::18                      0                       # What read queue length does an incoming req see
system.mem_ctrls.rdQLenPdf::19                      0                       # What read queue length does an incoming req see
system.mem_ctrls.rdQLenPdf::20                      0                       # What read queue length does an incoming req see
system.mem_ctrls.rdQLenPdf::21                      0                       # What read queue length does an incoming req see
system.mem_ctrls.rdQLenPdf::22                      0                       # What read queue length does an incoming req see
system.mem_ctrls.rdQLenPdf::23                      0                       # What read queue length does an incoming req see
system.mem_ctrls.rdQLenPdf::24                      0                       # What read queue length does an incoming req see
system.mem_ctrls.rdQLenPdf::25                      0                       # What read queue length does an incoming req see
system.mem_ctrls.rdQLenPdf::26                      0                       # What read queue length does an incoming req see
system.mem_ctrls.rdQLenPdf::27                      0                       # What read queue length does an incoming req see
system.mem_ctrls.rdQLenPdf::28                      0                       # What read queue length does an incoming req see
system.mem_ctrls.rdQLenPdf::29                      0                       # What read queue length does an incoming req see
system.mem_ctrls.rdQLenPdf::30                      0                       # What read queue length does an incoming req see
system.mem_ctrls.rdQLenPdf::31                      0                       # What read queue length does an incoming req see
system.mem_ctrls.rdQLenPdf::32                      0                       # What read queue length does an incoming req see
system.mem_ctrls.rdQLenPdf::33                      0                       # What read queue length does an incoming req see
system.mem_ctrls.rdQLenPdf::34                      0                       # What read queue length does an incoming req see
system.mem_ctrls.rdQLenPdf::35                      0                       # What read queue length does an incoming req see
system.mem_ctrls.rdQLenPdf::36                      0                       # What read queue length does an incoming req see
system.mem_ctrls.rdQLenPdf::37                      0                       # What read queue length does an incoming req see
system.mem_ctrls.rdQLenPdf::38                      0                       # What read queue length does an incoming req see
system.mem_ctrls.rdQLenPdf::39                      0                       # What read queue length does an incoming req see
system.mem_ctrls.rdQLenPdf::40                      0                       # What read queue length does an incoming req see
system.mem_ctrls.rdQLenPdf::41                      0                       # What read queue length does an incoming req see
system.mem_ctrls.rdQLenPdf::42                      0                       # What read queue length does an incoming req see
system.mem_ctrls.rdQLenPdf::43                      0                       # What read queue length does an incoming req see
system.mem_ctrls.rdQLenPdf::44                      0                       # What read queue length does an incoming req see
system.mem_ctrls.rdQLenPdf::45                      0                       # What read queue length does an incoming req see
system.mem_ctrls.rdQLenPdf::46                      0                       # What read queue length does an incoming req see
system.mem_ctrls.rdQLenPdf::47                      0                       # What read queue length does an incoming req see
system.mem_ctrls.rdQLenPdf::48                      0                       # What read queue length does an incoming req see
system.mem_ctrls.rdQLenPdf::49                      0                       # What read queue length does an incoming req see
system.mem_ctrls.rdQLenPdf::50                      0                       # What read queue length does an incoming req see
system.mem_ctrls.rdQLenPdf::51                      0                       # What read queue length does an incoming req see
system.mem_ctrls.rdQLenPdf::52                      0                       # What read queue length does an incoming req see
system.mem_ctrls.rdQLenPdf::53                      0                       # What read queue length does an incoming req see
system.mem_ctrls.rdQLenPdf::54                      0                       # What read queue length does an incoming req see
system.mem_ctrls.rdQLenPdf::55                      0                       # What read queue length does an incoming req see
system.mem_ctrls.rdQLenPdf::56                      0                       # What read queue length does an incoming req see
system.mem_ctrls.rdQLenPdf::57                      0                       # What read queue length does an incoming req see
system.mem_ctrls.rdQLenPdf::58                      0                       # What read queue length does an incoming req see
system.mem_ctrls.rdQLenPdf::59                      0                       # What read queue length does an incoming req see
system.mem_ctrls.rdQLenPdf::60                      0                       # What read queue length does an incoming req see
system.mem_ctrls.rdQLenPdf::61                      0                       # What read queue length does an incoming req see
system.mem_ctrls.rdQLenPdf::62                      0                       # What read queue length does an incoming req see
system.mem_ctrls.rdQLenPdf::63                      0                       # What read queue length does an incoming req see
system.mem_ctrls.wrQLenPdf::0                       0                       # What write queue length does an incoming req see
system.mem_ctrls.wrQLenPdf::1                       0                       # What write queue length does an incoming req see
system.mem_ctrls.wrQLenPdf::2                       0                       # What write queue length does an incoming req see
system.mem_ctrls.wrQLenPdf::3                       0                       # What write queue length does an incoming req see
system.mem_ctrls.wrQLenPdf::4                       0                       # What write queue length does an incoming req see
system.mem_ctrls.wrQLenPdf::5                       0                       # What write queue length does an incoming req see
system.mem_ctrls.wrQLenPdf::6                       0                       # What write queue length does an incoming req see
system.mem_ctrls.wrQLenPdf::7                       0                       # What write queue length does an incoming req see
system.mem_ctrls.wrQLenPdf::8                       0                       # What write queue length does an incoming req see
system.mem_ctrls.wrQLenPdf::9                       0                       # What write queue length does an incoming req see
system.mem_ctrls.wrQLenPdf::10                      0                       # What write queue length does an incoming req see
system.mem_ctrls.wrQLenPdf::11                      0                       # What write queue length does an incoming req see
system.mem_ctrls.wrQLenPdf::12                      0                       # What write queue length does an incoming req see
system.mem_ctrls.wrQLenPdf::13                      0                       # What write queue length does an incoming req see
system.mem_ctrls.wrQLenPdf::14                      0                       # What write queue length does an incoming req see
system.mem_ctrls.wrQLenPdf::15                      0                       # What write queue length does an incoming req see
system.mem_ctrls.wrQLenPdf::16                      0                       # What write queue length does an incoming req see
system.mem_ctrls.wrQLenPdf::17                      0                       # What write queue length does an incoming req see
system.mem_ctrls.wrQLenPdf::18                      0                       # What write queue length does an incoming req see
system.mem_ctrls.wrQLenPdf::19                      0                       # What write queue length does an incoming req see
system.mem_ctrls.wrQLenPdf::20                      0                       # What write queue length does an incoming req see
system.mem_ctrls.wrQLenPdf::21                      0                       # What write queue length does an incoming req see
system.mem_ctrls.wrQLenPdf::22                      0                       # What write queue length does an incoming req see
system.mem_ctrls.wrQLenPdf::23                      0                       # What write queue length does an incoming req see
system.mem_ctrls.wrQLenPdf::24                      0                       # What write queue length does an incoming req see
system.mem_ctrls.wrQLenPdf::25                      0                       # What write queue length does an incoming req see
system.mem_ctrls.wrQLenPdf::26                      0                       # What write queue length does an incoming req see
system.mem_ctrls.wrQLenPdf::27                      0                       # What write queue length does an incoming req see
system.mem_ctrls.wrQLenPdf::28                      0                       # What write queue length does an incoming req see
system.mem_ctrls.wrQLenPdf::29                      0                       # What write queue length does an incoming req see
system.mem_ctrls.wrQLenPdf::30                      0                       # What write queue length does an incoming req see
system.mem_ctrls.wrQLenPdf::31                      0                       # What write queue length does an incoming req see
system.mem_ctrls.wrQLenPdf::32                      0                       # What write queue length does an incoming req see
system.mem_ctrls.wrQLenPdf::33                      0                       # What write queue length does an incoming req see
system.mem_ctrls.wrQLenPdf::34                      0                       # What write queue length does an incoming req see
system.mem_ctrls.wrQLenPdf::35                      0                       # What write queue length does an incoming req see
system.mem_ctrls.wrQLenPdf::36                      0                       # What write queue length does an incoming req see
system.mem_ctrls.wrQLenPdf::37                      0                       # What write queue length does an incoming req see
system.mem_ctrls.wrQLenPdf::38                      0                       # What write queue length does an incoming req see
system.mem_ctrls.wrQLenPdf::39                      0                       # What write queue length does an incoming req see
system.mem_ctrls.wrQLenPdf::40                      0                       # What write queue length does an incoming req see
system.mem_ctrls.wrQLenPdf::41                      0                       # What write queue length does an incoming req see
system.mem_ctrls.wrQLenPdf::42                      0                       # What write queue length does an incoming req see
system.mem_ctrls.wrQLenPdf::43                      0                       # What write queue length does an incoming req see
system.mem_ctrls.wrQLenPdf::44                      0                       # What write queue length does an incoming req see
system.mem_ctrls.wrQLenPdf::45                      0                       # What write queue length does an incoming req see
system.mem_ctrls.wrQLenPdf::46                      0                       # What write queue length does an incoming req see
system.mem_ctrls.wrQLenPdf::47                      0                       # What write queue length does an incoming req see
system.mem_ctrls.wrQLenPdf::48                      0                       # What write queue length does an incoming req see
system.mem_ctrls.wrQLenPdf::49                      0                       # What write queue length does an incoming req see
system.mem_ctrls.wrQLenPdf::50                      0                       # What write queue length does an incoming req see
system.mem_ctrls.wrQLenPdf::51                      0                       # What write queue length does an incoming req see
system.mem_ctrls.wrQLenPdf::52                      0                       # What write queue length does an incoming req see
system.mem_ctrls.wrQLenPdf::53                      0                       # What write queue length does an incoming req see
system.mem_ctrls.wrQLenPdf::54                      0                       # What write queue length does an incoming req see
system.mem_ctrls.wrQLenPdf::55                      0                       # What write queue length does an incoming req see
system.mem_ctrls.wrQLenPdf::56                      0                       # What write queue length does an incoming req see
system.mem_ctrls.wrQLenPdf::57                      0                       # What write queue length does an incoming req see
system.mem_ctrls.wrQLenPdf::58                      0                       # What write queue length does an incoming req see
system.mem_ctrls.wrQLenPdf::59                      0                       # What write queue length does an incoming req see
system.mem_ctrls.wrQLenPdf::60                      0                       # What write queue length does an incoming req see
system.mem_ctrls.wrQLenPdf::61                      0                       # What write queue length does an incoming req see
system.mem_ctrls.wrQLenPdf::62                      0                       # What write queue length does an incoming req see
system.mem_ctrls.wrQLenPdf::63                      0                       # What write queue length does an incoming req see
system.mem_ctrls.wrQLenPdf::64                      0                       # What write queue length does an incoming req see
system.mem_ctrls.wrQLenPdf::65                      0                       # What write queue length does an incoming req see
system.mem_ctrls.wrQLenPdf::66                      0                       # What write queue length does an incoming req see
system.mem_ctrls.wrQLenPdf::67                      0                       # What write queue length does an incoming req see
system.mem_ctrls.wrQLenPdf::68                      0                       # What write queue length does an incoming req see
system.mem_ctrls.wrQLenPdf::69                      0                       # What write queue length does an incoming req see
system.mem_ctrls.wrQLenPdf::70                      0                       # What write queue length does an incoming req see
system.mem_ctrls.wrQLenPdf::71                      0                       # What write queue length does an incoming req see
system.mem_ctrls.wrQLenPdf::72                      0                       # What write queue length does an incoming req see
system.mem_ctrls.wrQLenPdf::73                      0                       # What write queue length does an incoming req see
system.mem_ctrls.wrQLenPdf::74                      0                       # What write queue length does an incoming req see
system.mem_ctrls.wrQLenPdf::75                      0                       # What write queue length does an incoming req see
system.mem_ctrls.wrQLenPdf::76                      0                       # What write queue length does an incoming req see
system.mem_ctrls.wrQLenPdf::77                      0                       # What write queue length does an incoming req see
system.mem_ctrls.wrQLenPdf::78                      0                       # What write queue length does an incoming req see
system.mem_ctrls.wrQLenPdf::79                      0                       # What write queue length does an incoming req see
system.mem_ctrls.wrQLenPdf::80                      0                       # What write queue length does an incoming req see
system.mem_ctrls.wrQLenPdf::81                      0                       # What write queue length does an incoming req see
system.mem_ctrls.wrQLenPdf::82                      0                       # What write queue length does an incoming req see
system.mem_ctrls.wrQLenPdf::83                      0                       # What write queue length does an incoming req see
system.mem_ctrls.wrQLenPdf::84                      0                       # What write queue length does an incoming req see
system.mem_ctrls.wrQLenPdf::85                      0                       # What write queue length does an incoming req see
system.mem_ctrls.wrQLenPdf::86                      0                       # What write queue length does an incoming req see
system.mem_ctrls.wrQLenPdf::87                      0                       # What write queue length does an incoming req see
system.mem_ctrls.wrQLenPdf::88                      0                       # What write queue length does an incoming req see
system.mem_ctrls.wrQLenPdf::89                      0                       # What write queue length does an incoming req see
system.mem_ctrls.wrQLenPdf::90                      0                       # What write queue length does an incoming req see
system.mem_ctrls.wrQLenPdf::91                      0                       # What write queue length does an incoming req see
system.mem_ctrls.wrQLenPdf::92                      0                       # What write queue length does an incoming req see
system.mem_ctrls.wrQLenPdf::93                      0                       # What write queue length does an incoming req see
system.mem_ctrls.wrQLenPdf::94                      0                       # What write queue length does an incoming req see
system.mem_ctrls.wrQLenPdf::95                      0                       # What write queue length does an incoming req see
system.mem_ctrls.wrQLenPdf::96                      0                       # What write queue length does an incoming req see
system.mem_ctrls.wrQLenPdf::97                      0                       # What write queue length does an incoming req see
system.mem_ctrls.wrQLenPdf::98                      0                       # What write queue length does an incoming req see
system.mem_ctrls.wrQLenPdf::99                      0                       # What write queue length does an incoming req see
system.mem_ctrls.wrQLenPdf::100                     0                       # What write queue length does an incoming req see
system.mem_ctrls.wrQLenPdf::101                     0                       # What write queue length does an incoming req see
system.mem_ctrls.wrQLenPdf::102                     0                       # What write queue length does an incoming req see
system.mem_ctrls.wrQLenPdf::103                     0                       # What write queue length does an incoming req see
system.mem_ctrls.wrQLenPdf::104                     0                       # What write queue length does an incoming req see
system.mem_ctrls.wrQLenPdf::105                     0                       # What write queue length does an incoming req see
system.mem_ctrls.wrQLenPdf::106                     0                       # What write queue length does an incoming req see
system.mem_ctrls.wrQLenPdf::107                     0                       # What write queue length does an incoming req see
system.mem_ctrls.wrQLenPdf::108                     0                       # What write queue length does an incoming req see
system.mem_ctrls.wrQLenPdf::109                     0                       # What write queue length does an incoming req see
system.mem_ctrls.wrQLenPdf::110                     0                       # What write queue length does an incoming req see
system.mem_ctrls.wrQLenPdf::111                     0                       # What write queue length does an incoming req see
system.mem_ctrls.wrQLenPdf::112                     0                       # What write queue length does an incoming req see
system.mem_ctrls.wrQLenPdf::113                     0                       # What write queue length does an incoming req see
system.mem_ctrls.wrQLenPdf::114                     0                       # What write queue length does an incoming req see
system.mem_ctrls.wrQLenPdf::115                     0                       # What write queue length does an incoming req see
system.mem_ctrls.wrQLenPdf::116                     0                       # What write queue length does an incoming req see
system.mem_ctrls.wrQLenPdf::117                     0                       # What write queue length does an incoming req see
system.mem_ctrls.wrQLenPdf::118                     0                       # What write queue length does an incoming req see
system.mem_ctrls.wrQLenPdf::119                     0                       # What write queue length does an incoming req see
system.mem_ctrls.wrQLenPdf::120                     0                       # What write queue length does an incoming req see
system.mem_ctrls.wrQLenPdf::121                     0                       # What write queue length does an incoming req see
system.mem_ctrls.wrQLenPdf::122                     0                       # What write queue length does an incoming req see
system.mem_ctrls.wrQLenPdf::123                     0                       # What write queue length does an incoming req see
system.mem_ctrls.wrQLenPdf::124                     0                       # What write queue length does an incoming req see
system.mem_ctrls.wrQLenPdf::125                     0                       # What write queue length does an incoming req see
system.mem_ctrls.wrQLenPdf::126                     0                       # What write queue length does an incoming req see
system.mem_ctrls.wrQLenPdf::127                     0                       # What write queue length does an incoming req see
system.mem_ctrls.totQLat                            0                       # Total ticks spent queuing
system.mem_ctrls.totMemAccLat                       0                       # Total ticks spent from burst creation until serviced by the DRAM
system.mem_ctrls.totBusLat                          0                       # Total ticks spent in databus transfers
system.mem_ctrls.avgQLat                          nan                       # Average queueing delay per DRAM burst
system.mem_ctrls.avgBusLat                        nan                       # Average bus latency per DRAM burst
system.mem_ctrls.avgMemAccLat                     nan                       # Average memory access latency per DRAM burst
system.mem_ctrls.avgRdBW                         0.00                       # Average DRAM read bandwidth in MiByte/s
system.mem_ctrls.avgWrBW                         0.00                       # Average achieved write bandwidth in MiByte/s
system.mem_ctrls.avgRdBWSys                      0.00                       # Average system read bandwidth in MiByte/s
system.mem_ctrls.avgWrBWSys                      0.00                       # Average system write bandwidth in MiByte/s
system.mem_ctrls.peakBW                      19207.00                       # Theoretical peak bandwidth in MiByte/s
system.mem_ctrls.busUtil                         0.00                       # Data bus utilization in percentage
system.mem_ctrls.busUtilRead                     0.00                       # Data bus utilization in percentage for reads
system.mem_ctrls.busUtilWrite                    0.00                       # Data bus utilization in percentage for writes
system.mem_ctrls.avgRdQLen                       0.00                       # Average read queue length when enqueuing
system.mem_ctrls.avgWrQLen                       0.00                       # Average write queue length when enqueuing
system.mem_ctrls.readRowHits                        0                       # Number of row buffer hits during reads
system.mem_ctrls.writeRowHits                       0                       # Number of row buffer hits during writes
system.mem_ctrls.readRowHitRate                   nan                       # Row buffer hit rate for reads
system.mem_ctrls.writeRowHitRate                  nan                       # Row buffer hit rate for writes
system.mem_ctrls.avgGap                           nan                       # Average gap between requests
system.mem_ctrls.pageHitRate                      nan                       # Row buffer hit rate, read and write combined
system.mem_ctrls_0.actEnergy                        0                       # Energy for activate commands per rank (pJ)
system.mem_ctrls_0.preEnergy                        0                       # Energy for precharge commands per rank (pJ)
system.mem_ctrls_0.readEnergy                       0                       # Energy for read commands per rank (pJ)
system.mem_ctrls_0.writeEnergy                      0                       # Energy for write commands per rank (pJ)
system.mem_ctrls_0.refreshEnergy                    0                       # Energy for refresh commands per rank (pJ)
system.mem_ctrls_0.actBackEnergy                    0                       # Energy for active background per rank (pJ)
system.mem_ctrls_0.preBackEnergy         464054093954435.812500                       # Energy for precharge background per rank (pJ)
system.mem_ctrls_0.actPowerDownEnergy               0                       # Energy for active power-down per rank (pJ)
system.mem_ctrls_0.prePowerDownEnergy               0                       # Energy for precharge power-down per rank (pJ)
system.mem_ctrls_0.selfRefreshEnergy                0                       # Energy for self refresh per rank (pJ)
system.mem_ctrls_0.totalEnergy           464054093954435.812500                       # Total energy per rank (pJ)
system.mem_ctrls_0.averagePower            163.200000                       # Core power per rank (mW)
system.mem_ctrls_0.totalIdleTime                    0                       # Total Idle time Per DRAM Rank
system.mem_ctrls_0.memoryStateTime::IDLE 9590591767737000                       # Time in different power states
system.mem_ctrls_0.memoryStateTime::REF             0                       # Time in different power states
system.mem_ctrls_0.memoryStateTime::SREF            0                       # Time in different power states
system.mem_ctrls_0.memoryStateTime::PRE_PDN            0                       # Time in different power states
system.mem_ctrls_0.memoryStateTime::ACT             0                       # Time in different power states
system.mem_ctrls_0.memoryStateTime::ACT_PDN            0                       # Time in different power states
system.mem_ctrls_1.actEnergy                        0                       # Energy for activate commands per rank (pJ)
system.mem_ctrls_1.preEnergy                        0                       # Energy for precharge commands per rank (pJ)
system.mem_ctrls_1.readEnergy                       0                       # Energy for read commands per rank (pJ)
system.mem_ctrls_1.writeEnergy                      0                       # Energy for write commands per rank (pJ)
system.mem_ctrls_1.refreshEnergy                    0                       # Energy for refresh commands per rank (pJ)
system.mem_ctrls_1.actBackEnergy                    0                       # Energy for active background per rank (pJ)
system.mem_ctrls_1.preBackEnergy         464054093954435.812500                       # Energy for precharge background per rank (pJ)
system.mem_ctrls_1.actPowerDownEnergy               0                       # Energy for active power-down per rank (pJ)
system.mem_ctrls_1.prePowerDownEnergy               0                       # Energy for precharge power-down per rank (pJ)
system.mem_ctrls_1.selfRefreshEnergy                0                       # Energy for self refresh per rank (pJ)
[...]
system.tol2bus2.trans_dist::WritebackClean      1347759                       # Transaction distribution
system.tol2bus2.trans_dist::CleanEvict        1315676                       # Transaction distribution
system.tol2bus2.trans_dist::UpgradeReq          84151                       # Transaction distribution
system.tol2bus2.trans_dist::SCUpgradeReq        40080                       # Transaction distribution
system.tol2bus2.trans_dist::UpgradeResp        124231                       # Transaction distribution
system.tol2bus2.trans_dist::ReadExReq          784488                       # Transaction distribution
system.tol2bus2.trans_dist::ReadExResp         784488                       # Transaction distribution
system.tol2bus2.trans_dist::ReadCleanReq      1349807                       # Transaction distribution
system.tol2bus2.trans_dist::ReadSharedReq      3155894                       # Transaction distribution
system.tol2bus2.trans_dist::CleanSharedReq           64                       # Transaction distribution
system.tol2bus2.trans_dist::CleanSharedResp           64                       # Transaction distribution
system.tol2bus2.trans_dist::InvalidateReq        64015                       # Transaction distribution
system.tol2bus2.trans_dist::InvalidateResp        64015                       # Transaction distribution
system.tol2bus2.pkt_count_system.cpu08.icache.mem_side::system.l22.cpu_side      1257901                       # Packet count per connected master and slave (bytes)
system.tol2bus2.pkt_count_system.cpu08.dcache.mem_side::system.l22.cpu_side      3045035                       # Packet count per connected master and slave (bytes)
system.tol2bus2.pkt_count_system.cpu08.itb.walker.dma::system.l22.cpu_side       187358                       # Packet count per connected master and slave (bytes)
system.tol2bus2.pkt_count_system.cpu08.dtb.walker.dma::system.l22.cpu_side       198108                       # Packet count per connected master and slave (bytes)
system.tol2bus2.pkt_count_system.cpu09.icache.mem_side::system.l22.cpu_side      1092454                       # Packet count per connected master and slave (bytes)
system.tol2bus2.pkt_count_system.cpu09.dcache.mem_side::system.l22.cpu_side      3216474                       # Packet count per connected master and slave (bytes)
system.tol2bus2.pkt_count_system.cpu09.itb.walker.dma::system.l22.cpu_side       146012                       # Packet count per connected master and slave (bytes)
system.tol2bus2.pkt_count_system.cpu09.dtb.walker.dma::system.l22.cpu_side       241682                       # Packet count per connected master and slave (bytes)
system.tol2bus2.pkt_count_system.cpu10.icache.mem_side::system.l22.cpu_side       643837                       # Packet count per connected master and slave (bytes)
system.tol2bus2.pkt_count_system.cpu10.dcache.mem_side::system.l22.cpu_side      2547470                       # Packet count per connected master and slave (bytes)
system.tol2bus2.pkt_count_system.cpu10.itb.walker.dma::system.l22.cpu_side        55430                       # Packet count per connected master and slave (bytes)
system.tol2bus2.pkt_count_system.cpu10.dtb.walker.dma::system.l22.cpu_side       138714                       # Packet count per connected master and slave (bytes)
system.tol2bus2.pkt_count_system.cpu11.icache.mem_side::system.l22.cpu_side      1053181                       # Packet count per connected master and slave (bytes)
system.tol2bus2.pkt_count_system.cpu11.dcache.mem_side::system.l22.cpu_side      3356436                       # Packet count per connected master and slave (bytes)
system.tol2bus2.pkt_count_system.cpu11.itb.walker.dma::system.l22.cpu_side       155918                       # Packet count per connected master and slave (bytes)
system.tol2bus2.pkt_count_system.cpu11.dtb.walker.dma::system.l22.cpu_side       244092                       # Packet count per connected master and slave (bytes)
system.tol2bus2.pkt_count::total             17580102                       # Packet count per connected master and slave (bytes)
system.tol2bus2.pkt_size_system.cpu08.icache.mem_side::system.l22.cpu_side     53659520                       # Cumulative packet size per connected master and slave (bytes)
system.tol2bus2.pkt_size_system.cpu08.dcache.mem_side::system.l22.cpu_side    103634534                       # Cumulative packet size per connected master and slave (bytes)
system.tol2bus2.pkt_size_system.cpu08.itb.walker.dma::system.l22.cpu_side       749432                       # Cumulative packet size per connected master and slave (bytes)
system.tol2bus2.pkt_size_system.cpu08.dtb.walker.dma::system.l22.cpu_side       792432                       # Cumulative packet size per connected master and slave (bytes)
system.tol2bus2.pkt_size_system.cpu09.icache.mem_side::system.l22.cpu_side     46600448                       # Cumulative packet size per connected master and slave (bytes)
system.tol2bus2.pkt_size_system.cpu09.dcache.mem_side::system.l22.cpu_side    112477360                       # Cumulative packet size per connected master and slave (bytes)
system.tol2bus2.pkt_size_system.cpu09.itb.walker.dma::system.l22.cpu_side       584048                       # Cumulative packet size per connected master and slave (bytes)
system.tol2bus2.pkt_size_system.cpu09.dtb.walker.dma::system.l22.cpu_side       966728                       # Cumulative packet size per connected master and slave (bytes)
system.tol2bus2.pkt_size_system.cpu10.icache.mem_side::system.l22.cpu_side     27459456                       # Cumulative packet size per connected master and slave (bytes)
system.tol2bus2.pkt_size_system.cpu10.dcache.mem_side::system.l22.cpu_side     87253612                       # Cumulative packet size per connected master and slave (bytes)
system.tol2bus2.pkt_size_system.cpu10.itb.walker.dma::system.l22.cpu_side       221720                       # Cumulative packet size per connected master and slave (bytes)
system.tol2bus2.pkt_size_system.cpu10.dtb.walker.dma::system.l22.cpu_side       554856                       # Cumulative packet size per connected master and slave (bytes)
system.tol2bus2.pkt_size_system.cpu11.icache.mem_side::system.l22.cpu_side     44924800                       # Cumulative packet size per connected master and slave (bytes)
system.tol2bus2.pkt_size_system.cpu11.dcache.mem_side::system.l22.cpu_side    112703320                       # Cumulative packet size per connected master and slave (bytes)
system.tol2bus2.pkt_size_system.cpu11.itb.walker.dma::system.l22.cpu_side       623672                       # Cumulative packet size per connected master and slave (bytes)
system.tol2bus2.pkt_size_system.cpu11.dtb.walker.dma::system.l22.cpu_side       976368                       # Cumulative packet size per connected master and slave (bytes)
system.tol2bus2.pkt_size::total             594182306                       # Cumulative packet size per connected master and slave (bytes)
system.tol2bus2.snoops                        1794312                       # Total snoops (count)
system.tol2bus2.snoopTraffic                 36130176                       # Total snoop traffic (bytes)
system.tol2bus2.snoop_fanout::samples         7844883                       # Request fanout histogram
system.tol2bus2.snoop_fanout::mean           0.368034                       # Request fanout histogram
system.tol2bus2.snoop_fanout::stdev          0.826667                       # Request fanout histogram
system.tol2bus2.snoop_fanout::underflows            0      0.00%      0.00% # Request fanout histogram
system.tol2bus2.snoop_fanout::0               6222746     79.32%     79.32% # Request fanout histogram
system.tol2bus2.snoop_fanout::1                804000     10.25%     89.57% # Request fanout histogram
system.tol2bus2.snoop_fanout::2                420746      5.36%     94.93% # Request fanout histogram
system.tol2bus2.snoop_fanout::3                351619      4.48%     99.42% # Request fanout histogram
system.tol2bus2.snoop_fanout::4                 44152      0.56%     99.98% # Request fanout histogram
system.tol2bus2.snoop_fanout::5                   375      0.00%     99.98% # Request fanout histogram
system.tol2bus2.snoop_fanout::6                   367      0.00%     99.99% # Request fanout histogram
system.tol2bus2.snoop_fanout::7                   878      0.01%    100.00% # Request fanout histogram
system.tol2bus2.snoop_fanout::8                     0      0.00%    100.00% # Request fanout histogram
system.tol2bus2.snoop_fanout::overflows             0      0.00%    100.00% # Request fanout histogram
system.tol2bus2.snoop_fanout::min_value             0                       # Request fanout histogram
system.tol2bus2.snoop_fanout::max_value             7                       # Request fanout histogram
system.tol2bus2.snoop_fanout::total           7844883                       # Request fanout histogram
system.tol2bus2.directResponses                     0                       # auxiliar stat for checking how reasonable wireless model is
system.tol2bus3.snoop_filter.tot_requests     27896800                       # Total number of requests made to the snoop filter.
system.tol2bus3.snoop_filter.hit_single_requests     12924933                       # Number of requests hitting in the snoop filter with a single holder of the requested data.
system.tol2bus3.snoop_filter.hit_multi_requests      3340268                       # Number of requests hitting in the snoop filter with multiple (>1) holders of the requested data.
system.tol2bus3.snoop_filter.tot_snoops        607148                       # Total number of snoops made to the snoop filter.
system.tol2bus3.snoop_filter.hit_single_snoops       460425                       # Number of snoops hitting in the snoop filter with a single holder of the requested data.
system.tol2bus3.snoop_filter.hit_multi_snoops       146723                       # Number of snoops hitting in the snoop filter with multiple (>1) holders of the requested data.
system.tol2bus3.pwrStateResidencyTicks::UNDEFINED 9590591767737000                       # Cumulative time (in ticks) in various power states
system.tol2bus3.trans_dist::ReadReq           3115130                       # Transaction distribution
system.tol2bus3.trans_dist::ReadResp         15602854                       # Transaction distribution
system.tol2bus3.trans_dist::WriteReq             8713                       # Transaction distribution
system.tol2bus3.trans_dist::WriteResp            8713                       # Transaction distribution
system.tol2bus3.trans_dist::WritebackDirty      3417972                       # Transaction distribution
system.tol2bus3.trans_dist::WritebackClean      8057032                       # Transaction distribution
system.tol2bus3.trans_dist::CleanEvict        2123998                       # Transaction distribution
system.tol2bus3.trans_dist::UpgradeReq         104621                       # Transaction distribution
system.tol2bus3.trans_dist::SCUpgradeReq        56040                       # Transaction distribution
system.tol2bus3.trans_dist::UpgradeResp        160661                       # Transaction distribution
system.tol2bus3.trans_dist::ReadExReq         1112469                       # Transaction distribution
system.tol2bus3.trans_dist::ReadExResp        1112469                       # Transaction distribution
system.tol2bus3.trans_dist::ReadCleanReq      8059080                       # Transaction distribution
system.tol2bus3.trans_dist::ReadSharedReq      4428644                       # Transaction distribution
system.tol2bus3.trans_dist::CleanSharedReq          640                       # Transaction distribution
system.tol2bus3.trans_dist::CleanSharedResp          640                       # Transaction distribution
system.tol2bus3.trans_dist::InvalidateReq       155891                       # Transaction distribution
system.tol2bus3.trans_dist::InvalidateResp       155891                       # Transaction distribution
system.tol2bus3.pkt_count_system.cpu12.icache.mem_side::system.l23.cpu_side       903367                       # Packet count per connected master and slave (bytes)
system.tol2bus3.pkt_count_system.cpu12.dcache.mem_side::system.l23.cpu_side      2851837                       # Packet count per connected master and slave (bytes)
system.tol2bus3.pkt_count_system.cpu12.itb.walker.dma::system.l23.cpu_side       130236                       # Packet count per connected master and slave (bytes)
system.tol2bus3.pkt_count_system.cpu12.dtb.walker.dma::system.l23.cpu_side       195206                       # Packet count per connected master and slave (bytes)
system.tol2bus3.pkt_count_system.cpu13.icache.mem_side::system.l23.cpu_side      1750768                       # Packet count per connected master and slave (bytes)
system.tol2bus3.pkt_count_system.cpu13.dcache.mem_side::system.l23.cpu_side      3287390                       # Packet count per connected master and slave (bytes)
system.tol2bus3.pkt_count_system.cpu13.itb.walker.dma::system.l23.cpu_side       295362                       # Packet count per connected master and slave (bytes)
system.tol2bus3.pkt_count_system.cpu13.dtb.walker.dma::system.l23.cpu_side       262332                       # Packet count per connected master and slave (bytes)
system.tol2bus3.pkt_count_system.cpu14.icache.mem_side::system.l23.cpu_side     20451199                       # Packet count per connected master and slave (bytes)
system.tol2bus3.pkt_count_system.cpu14.dcache.mem_side::system.l23.cpu_side      8365094                       # Packet count per connected master and slave (bytes)
system.tol2bus3.pkt_count_system.cpu14.itb.walker.dma::system.l23.cpu_side      4072100                       # Packet count per connected master and slave (bytes)
system.tol2bus3.pkt_count_system.cpu14.dtb.walker.dma::system.l23.cpu_side       881282                       # Packet count per connected master and slave (bytes)
system.tol2bus3.pkt_count_system.cpu15.icache.mem_side::system.l23.cpu_side      1069858                       # Packet count per connected master and slave (bytes)
system.tol2bus3.pkt_count_system.cpu15.dcache.mem_side::system.l23.cpu_side      2792489                       # Packet count per connected master and slave (bytes)
system.tol2bus3.pkt_count_system.cpu15.itb.walker.dma::system.l23.cpu_side       153890                       # Packet count per connected master and slave (bytes)
system.tol2bus3.pkt_count_system.cpu15.dtb.walker.dma::system.l23.cpu_side       219048                       # Packet count per connected master and slave (bytes)
system.tol2bus3.pkt_count::total             47681458                       # Packet count per connected master and slave (bytes)
system.tol2bus3.pkt_size_system.cpu12.icache.mem_side::system.l23.cpu_side     38532736                       # Cumulative packet size per connected master and slave (bytes)
system.tol2bus3.pkt_size_system.cpu12.dcache.mem_side::system.l23.cpu_side     97859744                       # Cumulative packet size per connected master and slave (bytes)
system.tol2bus3.pkt_size_system.cpu12.itb.walker.dma::system.l23.cpu_side       520944                       # Cumulative packet size per connected master and slave (bytes)
system.tol2bus3.pkt_size_system.cpu12.dtb.walker.dma::system.l23.cpu_side       780824                       # Cumulative packet size per connected master and slave (bytes)
system.tol2bus3.pkt_size_system.cpu13.icache.mem_side::system.l23.cpu_side     74688512                       # Cumulative packet size per connected master and slave (bytes)
system.tol2bus3.pkt_size_system.cpu13.dcache.mem_side::system.l23.cpu_side    111596488                       # Cumulative packet size per connected master and slave (bytes)
system.tol2bus3.pkt_size_system.cpu13.itb.walker.dma::system.l23.cpu_side      1181448                       # Cumulative packet size per connected master and slave (bytes)
system.tol2bus3.pkt_size_system.cpu13.dtb.walker.dma::system.l23.cpu_side      1049328                       # Cumulative packet size per connected master and slave (bytes)
system.tol2bus3.pkt_size_system.cpu14.icache.mem_side::system.l23.cpu_side    872573568                       # Cumulative packet size per connected master and slave (bytes)
system.tol2bus3.pkt_size_system.cpu14.dcache.mem_side::system.l23.cpu_side    268312386                       # Cumulative packet size per connected master and slave (bytes)
system.tol2bus3.pkt_size_system.cpu14.itb.walker.dma::system.l23.cpu_side     16288400                       # Cumulative packet size per connected master and slave (bytes)
system.tol2bus3.pkt_size_system.cpu14.dtb.walker.dma::system.l23.cpu_side      3525128                       # Cumulative packet size per connected master and slave (bytes)
system.tol2bus3.pkt_size_system.cpu15.icache.mem_side::system.l23.cpu_side     45636352                       # Cumulative packet size per connected master and slave (bytes)
system.tol2bus3.pkt_size_system.cpu15.dcache.mem_side::system.l23.cpu_side     95689254                       # Cumulative packet size per connected master and slave (bytes)
system.tol2bus3.pkt_size_system.cpu15.itb.walker.dma::system.l23.cpu_side       615560                       # Cumulative packet size per connected master and slave (bytes)
system.tol2bus3.pkt_size_system.cpu15.dtb.walker.dma::system.l23.cpu_side       876192                       # Cumulative packet size per connected master and slave (bytes)
system.tol2bus3.pkt_size::total            1629726864                       # Cumulative packet size per connected master and slave (bytes)
system.tol2bus3.snoops                        2314555                       # Total snoops (count)
system.tol2bus3.snoopTraffic                 40586688                       # Total snoop traffic (bytes)
system.tol2bus3.snoop_fanout::samples        19172501                       # Request fanout histogram
system.tol2bus3.snoop_fanout::mean           0.279610                       # Request fanout histogram
system.tol2bus3.snoop_fanout::stdev          0.726269                       # Request fanout histogram
system.tol2bus3.snoop_fanout::underflows            0      0.00%      0.00% # Request fanout histogram
system.tol2bus3.snoop_fanout::0              16022353     83.57%     83.57% # Request fanout histogram
system.tol2bus3.snoop_fanout::1               1784494      9.31%     92.88% # Request fanout histogram
system.tol2bus3.snoop_fanout::2                582585      3.04%     95.92% # Request fanout histogram
system.tol2bus3.snoop_fanout::3                725493      3.78%     99.70% # Request fanout histogram
system.tol2bus3.snoop_fanout::4                 55692      0.29%     99.99% # Request fanout histogram
system.tol2bus3.snoop_fanout::5                   349      0.00%     99.99% # Request fanout histogram
system.tol2bus3.snoop_fanout::6                   575      0.00%     99.99% # Request fanout histogram
system.tol2bus3.snoop_fanout::7                   960      0.01%    100.00% # Request fanout histogram
system.tol2bus3.snoop_fanout::8                     0      0.00%    100.00% # Request fanout histogram
system.tol2bus3.snoop_fanout::overflows             0      0.00%    100.00% # Request fanout histogram
system.tol2bus3.snoop_fanout::min_value             0                       # Request fanout histogram
system.tol2bus3.snoop_fanout::max_value             7                       # Request fanout histogram
system.tol2bus3.snoop_fanout::total          19172501                       # Request fanout histogram
system.tol2bus3.directResponses                     0                       # auxiliar stat for checking how reasonable wireless model is

---------- End Simulation Statistics   ----------
